@<TRIPOS>MOLECULE
MMT
 4112  4320     1     0     1
SMALL
USER_CHARGES
@<TRIPOS>ATOM
  1 Al          2.555812    1.946087    0.000000 Al         1 MOL        1.5750 ****
  2 Si          3.315812    0.206087    2.680000 Si         1 MOL        2.1000 ****
  3 Si          3.415812    3.156087    2.690000 Si         1 MOL        2.1000 ****
  4 Op          3.125812    0.376087    1.060000  O         1 MOL       -1.0500 ****
  5 Op          3.565812    3.126087    1.060000  O         1 MOL       -1.0500 ****
  6Ohmg          0.965812    2.096087    0.990000  O         1 MOL       -1.0809 ****
  7 Ob         30.605812    3.676087    3.300000  O         1 MOL       -1.0500 ****
  8 Ob          3.115812    1.656087    3.300000  O         1 MOL       -1.0500 ****
  9 Ob          2.245812    4.176087    3.060000  O         1 MOL       -1.0500 ****
 10  H          0.565812    1.356087    1.430000  H         1 MOL        0.4250 ****
 11 Al          0.015812    6.426087    0.000000 Al         1 MOL        1.5750 ****
 12 Si          0.775812    4.696087    2.680000 Si         1 MOL        2.1000 ****
 13 Si          0.875812    7.636087    2.690000 Si         1 MOL        2.1000 ****
 14Omg          0.585812    4.866087    1.060000  O         1 MOL       -1.1808 ****
 15 Op          1.035812    7.606087    1.060000  O         1 MOL       -1.0500 ****
 16Ohmg          3.585812    6.576087    0.990000  O         1 MOL       -1.0809 ****
 17 Ob          2.265812    8.156087    3.300000  O         1 MOL       -1.0500 ****
 18 Ob          0.575812    6.136087    3.300000  O         1 MOL       -1.0500 ****
 19 Ob         30.675812    8.656087    3.060000  O         1 MOL       -1.0500 ****
 20  H          3.185812    5.836087    1.430000  H         1 MOL        0.4250 ****
 21 Al          2.615812    7.916087    0.000000 Al         1 MOL        1.5750 ****
 22 Si          1.775812    0.686087   38.900000 Si         1 MOL        2.1000 ****
 23 Si          1.755812    6.706087   38.890000 Si         1 MOL        2.1000 ****
 24 Op          1.965812    0.516087   40.520000  O         1 MOL       -1.0500 ****
 25 Op          1.605812    6.736087   40.520000  O         1 MOL       -1.0500 ****
 26Ohmg          4.205812    7.766087   40.590000  O         1 MOL       -1.0809 ****
 27 Ob          5.525812    6.186087   38.280000  O         1 MOL       -1.0500 ****
 28 Ob          2.065812    8.206087   38.290000  O         1 MOL       -1.0500 ****
 29 Ob          2.925812    5.686087   38.530000  O         1 MOL       -1.0500 ****
 30  H          4.605812    8.506087   40.160000  H         1 MOL        0.4250 ****
 31Mgo         30.955813    3.436087    0.000000 Mg         1 MOL        1.3600 ****
 32 Si          4.395812    5.166087   38.900000 Si         1 MOL        2.1000 ****
 33 Si          4.295812    2.226087   38.890000 Si         1 MOL        2.1000 ****
 34Omg          4.595812    4.996087   40.520000  O         1 MOL       -1.1808 ****
 35 Op          4.145812    2.256087   40.520000  O         1 MOL       -1.0500 ****
 36Ohmg          1.585812    3.286087   40.590000  O         1 MOL       -1.0809 ****
 37 Ob          2.905812    1.706087   38.280000  O         1 MOL       -1.0500 ****
 38 Ob          4.595812    3.726087   38.290000  O         1 MOL       -1.0500 ****
 39 Ob          5.455812    1.206087   38.530000  O         1 MOL       -1.0500 ****
 40  H          1.985812    4.026087   40.160000  H         1 MOL        0.4250 ****
 41 Al          7.715812    1.946087    0.000000 Al         1 MOL        1.5750 ****
 42 Si          8.475812    0.206087    2.680000 Si         1 MOL        2.1000 ****
 43 Si          8.575812    3.156087    2.690000 Si         1 MOL        2.1000 ****
 44Omg          8.285812    0.376087    1.060000  O         1 MOL       -1.1808 ****
 45 Op          8.725812    3.126087    1.060000  O         1 MOL       -1.0500 ****
 46 Oh          6.125812    2.096087    0.990000  O         1 MOL       -0.9500 ****
 47 Ob          4.805812    3.676087    3.300000  O         1 MOL       -1.0500 ****
 48 Ob          8.275812    1.656087    3.300000  O         1 MOL       -1.0500 ****
 49 Ob          7.405812    4.176087    3.060000  O         1 MOL       -1.0500 ****
 50  H          5.725812    1.356087    1.430000  H         1 MOL        0.4250 ****
 51Mgo          5.175812    6.426087    0.000000 Mg         1 MOL        1.3600 ****
 52 Si          5.935812    4.696087    2.680000 Si         1 MOL        2.1000 ****
 53 Si          6.035812    7.636087    2.690000 Si         1 MOL        2.1000 ****
 54Omg          5.745812    4.866087    1.060000  O         1 MOL       -1.1808 ****
 55Omg          6.195812    7.606087    1.060000  O         1 MOL       -1.1808 ****
 56 Oh          8.745812    6.576087    0.990000  O         1 MOL       -0.9500 ****
 57 Ob          7.425812    8.156087    3.300000  O         1 MOL       -1.0500 ****
 58 Ob          5.735812    6.136087    3.300000  O         1 MOL       -1.0500 ****
 59 Ob          4.875812    8.656087    3.060000  O         1 MOL       -1.0500 ****
 60  H          8.345812    5.836087    1.430000  H         1 MOL        0.4250 ****
 61 Al          7.775812    7.916087    0.000000 Al         1 MOL        1.5750 ****
 62 Si          6.935812    0.686087   38.900000 Si         1 MOL        2.1000 ****
 63 Si          6.915812    6.706087   38.890000 Si         1 MOL        2.1000 ****
 64Omg          7.125812    0.516087   40.520000  O         1 MOL       -1.1808 ****
 65Omg          6.765812    6.736087   40.520000  O         1 MOL       -1.1808 ****
 66 Oh          9.365812    7.766087   40.590000  O         1 MOL       -0.9500 ****
 67 Ob         10.685812    6.186087   38.280000  O         1 MOL       -1.0500 ****
 68 Ob          7.225812    8.206087   38.290000  O         1 MOL       -1.0500 ****
 69 Ob          8.085812    5.686087   38.530000  O         1 MOL       -1.0500 ****
 70  H          9.765812    8.506087   40.160000  H         1 MOL        0.4250 ****
 71 Al          5.155812    3.436087    0.000000 Al         1 MOL        1.5750 ****
 72 Si          9.555812    5.166087   38.900000 Si         1 MOL        2.1000 ****
 73 Si          9.455812    2.226087   38.890000 Si         1 MOL        2.1000 ****
 74 Op          9.755812    4.996087   40.520000  O         1 MOL       -1.0500 ****
 75 Op          9.305812    2.256087   40.520000  O         1 MOL       -1.0500 ****
 76 Oh          6.745812    3.286087   40.590000  O         1 MOL       -0.9500 ****
 77 Ob          8.065812    1.706087   38.280000  O         1 MOL       -1.0500 ****
 78 Ob          9.755812    3.726087   38.290000  O         1 MOL       -1.0500 ****
 79 Ob         10.615812    1.206087   38.530000  O         1 MOL       -1.0500 ****
 80  H          7.145812    4.026087   40.160000  H         1 MOL        0.4250 ****
 81 Al         12.875812    1.946087    0.000000 Al         1 MOL        1.5750 ****
 82 Si         13.635813    0.206087    2.680000 Si         1 MOL        2.1000 ****
 83 Si         13.735812    3.156087    2.690000 Si         1 MOL        2.1000 ****
 84 Op         13.445812    0.376087    1.060000  O         1 MOL       -1.0500 ****
 85 Op         13.885812    3.126087    1.060000  O         1 MOL       -1.0500 ****
 86 Oh         11.285812    2.096087    0.990000  O         1 MOL       -0.9500 ****
 87 Ob          9.965812    3.676087    3.300000  O         1 MOL       -1.0500 ****
 88 Ob         13.435812    1.656087    3.300000  O         1 MOL       -1.0500 ****
 89 Ob         12.565812    4.176087    3.060000  O         1 MOL       -1.0500 ****
 90  H         10.885812    1.356087    1.430000  H         1 MOL        0.4250 ****
 91 Al         10.335812    6.426087    0.000000 Al         1 MOL        1.5750 ****
 92 Si         11.095812    4.696087    2.680000 Si         1 MOL        2.1000 ****
 93 Si         11.195812    7.636087    2.690000 Si         1 MOL        2.1000 ****
 94 Op         10.905812    4.866087    1.060000  O         1 MOL       -1.0500 ****
 95 Op         11.355812    7.606087    1.060000  O         1 MOL       -1.0500 ****
 96 Oh         13.905812    6.576087    0.990000  O         1 MOL       -0.9500 ****
 97 Ob         12.585812    8.156087    3.300000  O         1 MOL       -1.0500 ****
 98 Ob         10.895812    6.136087    3.300000  O         1 MOL       -1.0500 ****
 99 Ob         10.035812    8.656087    3.060000  O         1 MOL       -1.0500 ****
100  H         13.505812    5.836087    1.430000  H         1 MOL        0.4250 ****
101 Al         12.935812    7.916087    0.000000 Al         1 MOL        1.5750 ****
102 Si         12.095812    0.686087   38.900000 Si         1 MOL        2.1000 ****
103 Si         12.075812    6.706087   38.890000 Si         1 MOL        2.1000 ****
104 Op         12.285812    0.516087   40.520000  O         1 MOL       -1.0500 ****
105 Op         11.925812    6.736087   40.520000  O         1 MOL       -1.0500 ****
106 Oh         14.525812    7.766087   40.590000  O         1 MOL       -0.9500 ****
107 Ob         15.845812    6.186087   38.280000  O         1 MOL       -1.0500 ****
108 Ob         12.385812    8.206087   38.290000  O         1 MOL       -1.0500 ****
109 Ob         13.245812    5.686087   38.530000  O         1 MOL       -1.0500 ****
110  H         14.925812    8.506087   40.160000  H         1 MOL        0.4250 ****
111 Al         10.315812    3.436087    0.000000 Al         1 MOL        1.5750 ****
112 Si         14.715812    5.166087   38.900000 Si         1 MOL        2.1000 ****
113 Si         14.615812    2.226087   38.890000 Si         1 MOL        2.1000 ****
114 Op         14.915812    4.996087   40.520000  O         1 MOL       -1.0500 ****
115 Op         14.465812    2.256087   40.520000  O         1 MOL       -1.0500 ****
116 Oh         11.905812    3.286087   40.590000  O         1 MOL       -0.9500 ****
117 Ob         13.225812    1.706087   38.280000  O         1 MOL       -1.0500 ****
118 Ob         14.915812    3.726087   38.290000  O         1 MOL       -1.0500 ****
119 Ob         15.775812    1.206087   38.530000  O         1 MOL       -1.0500 ****
120  H         12.305812    4.026087   40.160000  H         1 MOL        0.4250 ****
121Mgo         18.035812    1.946087    0.000000 Mg         1 MOL        1.3600 ****
122 Si         18.795813    0.206087    2.680000 Si         1 MOL        2.1000 ****
123 Si         18.895812    3.156087    2.690000 Si         1 MOL        2.1000 ****
124Omg         18.605812    0.376087    1.060000  O         1 MOL       -1.1808 ****
125Omg         19.045813    3.126087    1.060000  O         1 MOL       -1.1808 ****
126Ohmg         16.445813    2.096087    0.990000  O         1 MOL       -1.0809 ****
127 Ob         15.125812    3.676087    3.300000  O         1 MOL       -1.0500 ****
128 Ob         18.595813    1.656087    3.300000  O         1 MOL       -1.0500 ****
129 Ob         17.725812    4.176087    3.060000  O         1 MOL       -1.0500 ****
130  H         16.045812    1.356087    1.430000  H         1 MOL        0.4250 ****
131 Al         15.495812    6.426087    0.000000 Al         1 MOL        1.5750 ****
132 Si         16.255812    4.696087    2.680000 Si         1 MOL        2.1000 ****
133 Si         16.355812    7.636087    2.690000 Si         1 MOL        2.1000 ****
134 Op         16.065812    4.866087    1.060000  O         1 MOL       -1.0500 ****
135Omg         16.515812    7.606087    1.060000  O         1 MOL       -1.1808 ****
136Ohmg         19.065812    6.576087    0.990000  O         1 MOL       -1.0809 ****
137 Ob         17.745812    8.156087    3.300000  O         1 MOL       -1.0500 ****
138 Ob         16.055813    6.136087    3.300000  O         1 MOL       -1.0500 ****
139 Ob         15.195812    8.656087    3.060000  O         1 MOL       -1.0500 ****
140  H         18.665813    5.836087    1.430000  H         1 MOL        0.4250 ****
141Mgo         18.095813    7.916087    0.000000 Mg         1 MOL        1.3600 ****
142 Si         17.255812    0.686087   38.900000 Si         1 MOL        2.1000 ****
143 Si         17.235813    6.706087   38.890000 Si         1 MOL        2.1000 ****
144Omg         17.445813    0.516087   40.520000  O         1 MOL       -1.1808 ****
145Omg         17.085813    6.736087   40.520000  O         1 MOL       -1.1808 ****
146Ohmg         19.685813    7.766087   40.590000  O         1 MOL       -1.0809 ****
147 Ob         21.005812    6.186087   38.280000  O         1 MOL       -1.0500 ****
148 Ob         17.545813    8.206087   38.290000  O         1 MOL       -1.0500 ****
149 Ob         18.405812    5.686087   38.530000  O         1 MOL       -1.0500 ****
150  H         20.085812    8.506087   40.160000  H         1 MOL        0.4250 ****
151 Al         15.475812    3.436087    0.000000 Al         1 MOL        1.5750 ****
152 Si         19.875813    5.166087   38.900000 Si         1 MOL        2.1000 ****
153 Si         19.775813    2.226087   38.890000 Si         1 MOL        2.1000 ****
154 Op         20.075812    4.996087   40.520000  O         1 MOL       -1.0500 ****
155Omg         19.625813    2.256087   40.520000  O         1 MOL       -1.1808 ****
156Ohmg         17.065812    3.286087   40.590000  O         1 MOL       -1.0809 ****
157 Ob         18.385813    1.706087   38.280000  O         1 MOL       -1.0500 ****
158 Ob         20.075812    3.726087   38.290000  O         1 MOL       -1.0500 ****
159 Ob         20.935813    1.206087   38.530000  O         1 MOL       -1.0500 ****
160  H         17.465812    4.026087   40.160000  H         1 MOL        0.4250 ****
161 Al         23.195813    1.946087    0.000000 Al         1 MOL        1.5750 ****
162 Si         23.955813    0.206087    2.680000 Si         1 MOL        2.1000 ****
163 Si         24.055813    3.156087    2.690000 Si         1 MOL        2.1000 ****
164 Op         23.765813    0.376087    1.060000  O         1 MOL       -1.0500 ****
165 Op         24.205813    3.126087    1.060000  O         1 MOL       -1.0500 ****
166 Oh         21.605812    2.096087    0.990000  O         1 MOL       -0.9500 ****
167 Ob         20.285812    3.676087    3.300000  O         1 MOL       -1.0500 ****
168 Ob         23.755813    1.656087    3.300000  O         1 MOL       -1.0500 ****
169 Ob         22.885813    4.176087    3.060000  O         1 MOL       -1.0500 ****
170  H         21.205813    1.356087    1.430000  H         1 MOL        0.4250 ****
171 Al         20.655813    6.426087    0.000000 Al         1 MOL        1.5750 ****
172 Si         21.415813    4.696087    2.680000 Si         1 MOL        2.1000 ****
173 Si         21.515813    7.636087    2.690000 Si         1 MOL        2.1000 ****
174 Op         21.225813    4.866087    1.060000  O         1 MOL       -1.0500 ****
175 Op         21.675812    7.606087    1.060000  O         1 MOL       -1.0500 ****
176 Oh         24.225812    6.576087    0.990000  O         1 MOL       -0.9500 ****
177 Ob         22.905813    8.156087    3.300000  O         1 MOL       -1.0500 ****
178 Ob         21.215812    6.136087    3.300000  O         1 MOL       -1.0500 ****
179 Ob         20.355812    8.656087    3.060000  O         1 MOL       -1.0500 ****
180  H         23.825812    5.836087    1.430000  H         1 MOL        0.4250 ****
181 Al         23.255812    7.916087    0.000000 Al         1 MOL        1.5750 ****
182 Si         22.415813    0.686087   38.900000 Si         1 MOL        2.1000 ****
183 Si         22.395812    6.706087   38.890000 Si         1 MOL        2.1000 ****
184 Op         22.605812    0.516087   40.520000  O         1 MOL       -1.0500 ****
185 Op         22.245812    6.736087   40.520000  O         1 MOL       -1.0500 ****
186 Oh         24.845813    7.766087   40.590000  O         1 MOL       -0.9500 ****
187 Ob         26.165813    6.186087   38.280000  O         1 MOL       -1.0500 ****
188 Ob         22.705813    8.206087   38.290000  O         1 MOL       -1.0500 ****
189 Ob         23.565812    5.686087   38.530000  O         1 MOL       -1.0500 ****
190  H         25.245812    8.506087   40.160000  H         1 MOL        0.4250 ****
191 Al         20.635813    3.436087    0.000000 Al         1 MOL        1.5750 ****
192 Si         25.035813    5.166087   38.900000 Si         1 MOL        2.1000 ****
193 Si         24.935812    2.226087   38.890000 Si         1 MOL        2.1000 ****
194 Op         25.235813    4.996087   40.520000  O         1 MOL       -1.0500 ****
195 Op         24.785812    2.256087   40.520000  O         1 MOL       -1.0500 ****
196 Oh         22.225813    3.286087   40.590000  O         1 MOL       -0.9500 ****
197 Ob         23.545813    1.706087   38.280000  O         1 MOL       -1.0500 ****
198 Ob         25.235813    3.726087   38.290000  O         1 MOL       -1.0500 ****
199 Ob         26.095813    1.206087   38.530000  O         1 MOL       -1.0500 ****
200  H         22.625813    4.026087   40.160000  H         1 MOL        0.4250 ****
201 Al         28.355812    1.946087    0.000000 Al         1 MOL        1.5750 ****
202 Si         29.115813    0.206087    2.680000 Si         1 MOL        2.1000 ****
203 Si         29.215812    3.156087    2.690000 Si         1 MOL        2.1000 ****
204 Op         28.925812    0.376087    1.060000  O         1 MOL       -1.0500 ****
205Omg         29.365813    3.126087    1.060000  O         1 MOL       -1.1808 ****
206 Oh         26.765812    2.096087    0.990000  O         1 MOL       -0.9500 ****
207 Ob         25.445813    3.676087    3.300000  O         1 MOL       -1.0500 ****
208 Ob         28.915813    1.656087    3.300000  O         1 MOL       -1.0500 ****
209 Ob         28.045812    4.176087    3.060000  O         1 MOL       -1.0500 ****
210  H         26.365812    1.356087    1.430000  H         1 MOL        0.4250 ****
211 Al         25.815812    6.426087    0.000000 Al         1 MOL        1.5750 ****
212 Si         26.575813    4.696087    2.680000 Si         1 MOL        2.1000 ****
213 Si         26.675812    7.636087    2.690000 Si         1 MOL        2.1000 ****
214 Op         26.385813    4.866087    1.060000  O         1 MOL       -1.0500 ****
215 Op         26.835813    7.606087    1.060000  O         1 MOL       -1.0500 ****
216 Oh         29.385813    6.576087    0.990000  O         1 MOL       -0.9500 ****
217 Ob         28.065812    8.156087    3.300000  O         1 MOL       -1.0500 ****
218 Ob         26.375813    6.136087    3.300000  O         1 MOL       -1.0500 ****
219 Ob         25.515812    8.656087    3.060000  O         1 MOL       -1.0500 ****
220  H         28.985813    5.836087    1.430000  H         1 MOL        0.4250 ****
221 Al         28.415813    7.916087    0.000000 Al         1 MOL        1.5750 ****
222 Si         27.575812    0.686087   38.900000 Si         1 MOL        2.1000 ****
223 Si         27.555813    6.706087   38.890000 Si         1 MOL        2.1000 ****
224 Op         27.765813    0.516087   40.520000  O         1 MOL       -1.0500 ****
225 Op         27.405812    6.736087   40.520000  O         1 MOL       -1.0500 ****
226 Oh         30.005813    7.766087   40.590000  O         1 MOL       -0.9500 ****
227 Ob          0.365812    6.186087   38.280000  O         1 MOL       -1.0500 ****
228 Ob         27.865813    8.206087   38.290000  O         1 MOL       -1.0500 ****
229 Ob         28.725813    5.686087   38.530000  O         1 MOL       -1.0500 ****
230  H         30.405813    8.506087   40.160000  H         1 MOL        0.4250 ****
231 Al         25.795812    3.436087    0.000000 Al         1 MOL        1.5750 ****
232 Si         30.195812    5.166087   38.900000 Si         1 MOL        2.1000 ****
233 Si         30.095813    2.226087   38.890000 Si         1 MOL        2.1000 ****
234Omg         30.395812    4.996087   40.520000  O         1 MOL       -1.1808 ****
235Omg         29.945813    2.256087   40.520000  O         1 MOL       -1.1808 ****
236 Oh         27.385813    3.286087   40.590000  O         1 MOL       -0.9500 ****
237 Ob         28.705813    1.706087   38.280000  O         1 MOL       -1.0500 ****
238 Ob         30.395812    3.726087   38.290000  O         1 MOL       -1.0500 ****
239 Ob          0.295813    1.206087   38.530000  O         1 MOL       -1.0500 ****
240  H         27.785812    4.026087   40.160000  H         1 MOL        0.4250 ****
241 Al          2.635812   10.916087    0.000000 Al         1 MOL        1.5750 ****
242 Si          3.395812    9.176087    2.680000 Si         1 MOL        2.1000 ****
243 Si          3.495812   12.126087    2.690000 Si         1 MOL        2.1000 ****
244 Op          3.205812    9.346087    1.060000  O         1 MOL       -1.0500 ****
245 Op          3.655812   12.086087    1.060000  O         1 MOL       -1.0500 ****
246 Oh          1.045812   11.066087    0.990000  O         1 MOL       -0.9500 ****
247 Ob         30.685812   12.646087    3.300000  O         1 MOL       -1.0500 ****
248 Ob          3.195812   10.626087    3.300000  O         1 MOL       -1.0500 ****
249 Ob          2.335812   13.136087    3.060000  O         1 MOL       -1.0500 ****
250  H          0.645812   10.316087    1.430000  H         1 MOL        0.4250 ****
251 Al          0.105812   15.396087    0.000000 Al         1 MOL        1.5750 ****
252 Si          0.855812   13.656087    2.680000 Si         1 MOL        2.1000 ****
253 Si          0.965812   16.606087    2.690000 Si         1 MOL        2.1000 ****
254 Op          0.665812   13.826087    1.060000  O         1 MOL       -1.0500 ****
255 Op          1.115812   16.576087    1.060000  O         1 MOL       -1.0500 ****
256 Oh          3.675812   15.546087    0.990000  O         1 MOL       -0.9500 ****
257 Ob          2.355812   17.126087    3.300000  O         1 MOL       -1.0500 ****
258 Ob          0.655812   15.106087    3.300000  O         1 MOL       -1.0500 ****
259 Ob         30.755812   17.626087    3.060000  O         1 MOL       -1.0500 ****
260  H          3.275812   14.796087    1.430000  H         1 MOL        0.4250 ****
261 Al          2.705812   16.886087    0.000000 Al         1 MOL        1.5750 ****
262 Si          1.855812    9.656087   38.900000 Si         1 MOL        2.1000 ****
263 Si          1.845812   15.676087   38.890000 Si         1 MOL        2.1000 ****
264 Op          2.055812    9.486087   40.520000  O         1 MOL       -1.0500 ****
265 Op          1.685812   15.706087   40.520000  O         1 MOL       -1.0500 ****
266 Oh          4.295812   16.726087   40.590000  O         1 MOL       -0.9500 ****
267 Ob          5.615812   15.156087   38.280000  O         1 MOL       -1.0500 ****
268 Ob          2.145812   17.176087   38.290000  O         1 MOL       -1.0500 ****
269 Ob          3.005812   14.656087   38.530000  O         1 MOL       -1.0500 ****
270  H          4.695812   17.476087   40.160000  H         1 MOL        0.4250 ****
271 Al          0.075812   12.396087    0.000000 Al         1 MOL        1.5750 ****
272 Si          4.485812   14.136087   38.900000 Si         1 MOL        2.1000 ****
273 Si          4.375812   11.186087   38.890000 Si         1 MOL        2.1000 ****
274 Op          4.675812   13.966087   40.520000  O         1 MOL       -1.0500 ****
275 Op          4.225812   11.216087   40.520000  O         1 MOL       -1.0500 ****
276 Oh          1.665812   12.246087   40.590000  O         1 MOL       -0.9500 ****
277 Ob          2.985812   10.666087   38.280000  O         1 MOL       -1.0500 ****
278 Ob          4.685812   12.686087   38.290000  O         1 MOL       -1.0500 ****
279 Ob          5.545812   10.166087   38.530000  O         1 MOL       -1.0500 ****
280  H          2.065812   12.996087   40.160000  H         1 MOL        0.4250 ****
281 Al          7.795812   10.916087    0.000000 Al         1 MOL        1.5750 ****
282 Si          8.555812    9.176087    2.680000 Si         1 MOL        2.1000 ****
283 Si          8.655812   12.126087    2.690000 Si         1 MOL        2.1000 ****
284 Op          8.365812    9.346087    1.060000  O         1 MOL       -1.0500 ****
285 Op          8.815812   12.086087    1.060000  O         1 MOL       -1.0500 ****
286 Oh          6.205812   11.066087    0.990000  O         1 MOL       -0.9500 ****
287 Ob          4.885812   12.646087    3.300000  O         1 MOL       -1.0500 ****
288 Ob          8.355812   10.626087    3.300000  O         1 MOL       -1.0500 ****
289 Ob          7.495812   13.136087    3.060000  O         1 MOL       -1.0500 ****
290  H          5.805812   10.316087    1.430000  H         1 MOL        0.4250 ****
291 Al          5.265812   15.396087    0.000000 Al         1 MOL        1.5750 ****
292 Si          6.015812   13.656087    2.680000 Si         1 MOL        2.1000 ****
293 Si          6.125812   16.606087    2.690000 Si         1 MOL        2.1000 ****
294 Op          5.825812   13.826087    1.060000  O         1 MOL       -1.0500 ****
295Omg          6.275812   16.576087    1.060000  O         1 MOL       -1.1808 ****
296Ohmg          8.835812   15.546087    0.990000  O         1 MOL       -1.0809 ****
297 Ob          7.515812   17.126087    3.300000  O         1 MOL       -1.0500 ****
298 Ob          5.815812   15.106087    3.300000  O         1 MOL       -1.0500 ****
299 Ob          4.955812   17.626087    3.060000  O         1 MOL       -1.0500 ****
300  H          8.435812   14.796087    1.430000  H         1 MOL        0.4250 ****
301Mgo          7.865812   16.886087    0.000000 Mg         1 MOL        1.3600 ****
302 Si          7.015812    9.656087   38.900000 Si         1 MOL        2.1000 ****
303 Si          7.005812   15.676087   38.890000 Si         1 MOL        2.1000 ****
304 Op          7.215812    9.486087   40.520000  O         1 MOL       -1.0500 ****
305Omg          6.845812   15.706087   40.520000  O         1 MOL       -1.1808 ****
306Ohmg          9.455812   16.726087   40.590000  O         1 MOL       -1.0809 ****
307 Ob         10.775812   15.156087   38.280000  O         1 MOL       -1.0500 ****
308 Ob          7.305812   17.176087   38.290000  O         1 MOL       -1.0500 ****
309 Ob          8.165812   14.656087   38.530000  O         1 MOL       -1.0500 ****
310  H          9.855812   17.476087   40.160000  H         1 MOL        0.4250 ****
311 Al          5.235812   12.396087    0.000000 Al         1 MOL        1.5750 ****
312 Si          9.645812   14.136087   38.900000 Si         1 MOL        2.1000 ****
313 Si          9.535812   11.186087   38.890000 Si         1 MOL        2.1000 ****
314 Op          9.835812   13.966087   40.520000  O         1 MOL       -1.0500 ****
315 Op          9.385812   11.216087   40.520000  O         1 MOL       -1.0500 ****
316 Oh          6.825812   12.246087   40.590000  O         1 MOL       -0.9500 ****
317 Ob          8.145812   10.666087   38.280000  O         1 MOL       -1.0500 ****
318 Ob          9.845812   12.686087   38.290000  O         1 MOL       -1.0500 ****
319 Ob         10.705812   10.166087   38.530000  O         1 MOL       -1.0500 ****
320  H          7.225812   12.996087   40.160000  H         1 MOL        0.4250 ****
321Mgo         12.955812   10.916087    0.000000 Mg         1 MOL        1.3600 ****
322 Si         13.715812    9.176087    2.680000 Si         1 MOL        2.1000 ****
323 Si         13.815812   12.126087    2.690000 Si         1 MOL        2.1000 ****
324Omg         13.525812    9.346087    1.060000  O         1 MOL       -1.1808 ****
325Omg         13.975812   12.086087    1.060000  O         1 MOL       -1.1808 ****
326Ohmg         11.365812   11.066087    0.990000  O         1 MOL       -1.0809 ****
327 Ob         10.045812   12.646087    3.300000  O         1 MOL       -1.0500 ****
328 Ob         13.515812   10.626087    3.300000  O         1 MOL       -1.0500 ****
329 Ob         12.655812   13.136087    3.060000  O         1 MOL       -1.0500 ****
330  H         10.965812   10.316087    1.430000  H         1 MOL        0.4250 ****
331 Al         10.425812   15.396087    0.000000 Al         1 MOL        1.5750 ****
332 Si         11.175812   13.656087    2.680000 Si         1 MOL        2.1000 ****
333 Si         11.285812   16.606087    2.690000 Si         1 MOL        2.1000 ****
334 Op         10.985812   13.826087    1.060000  O         1 MOL       -1.0500 ****
335 Op         11.435812   16.576087    1.060000  O         1 MOL       -1.0500 ****
336 Oh         13.995812   15.546087    0.990000  O         1 MOL       -0.9500 ****
337 Ob         12.675812   17.126087    3.300000  O         1 MOL       -1.0500 ****
338 Ob         10.975812   15.106087    3.300000  O         1 MOL       -1.0500 ****
339 Ob         10.115812   17.626087    3.060000  O         1 MOL       -1.0500 ****
340  H         13.595812   14.796087    1.430000  H         1 MOL        0.4250 ****
341 Al         13.025812   16.886087    0.000000 Al         1 MOL        1.5750 ****
342 Si         12.175812    9.656087   38.900000 Si         1 MOL        2.1000 ****
343 Si         12.165812   15.676087   38.890000 Si         1 MOL        2.1000 ****
344Omg         12.375812    9.486087   40.520000  O         1 MOL       -1.1808 ****
345 Op         12.005812   15.706087   40.520000  O         1 MOL       -1.0500 ****
346 Oh         14.615812   16.726087   40.590000  O         1 MOL       -0.9500 ****
347 Ob         15.935812   15.156087   38.280000  O         1 MOL       -1.0500 ****
348 Ob         12.465812   17.176087   38.290000  O         1 MOL       -1.0500 ****
349 Ob         13.325812   14.656087   38.530000  O         1 MOL       -1.0500 ****
350  H         15.015812   17.476087   40.160000  H         1 MOL        0.4250 ****
351 Al         10.395812   12.396087    0.000000 Al         1 MOL        1.5750 ****
352 Si         14.805812   14.136087   38.900000 Si         1 MOL        2.1000 ****
353 Si         14.695812   11.186087   38.890000 Si         1 MOL        2.1000 ****
354 Op         14.995812   13.966087   40.520000  O         1 MOL       -1.0500 ****
355Omg         14.545812   11.216087   40.520000  O         1 MOL       -1.1808 ****
356Ohmg         11.985812   12.246087   40.590000  O         1 MOL       -1.0809 ****
357 Ob         13.305812   10.666087   38.280000  O         1 MOL       -1.0500 ****
358 Ob         15.005812   12.686087   38.290000  O         1 MOL       -1.0500 ****
359 Ob         15.865812   10.166087   38.530000  O         1 MOL       -1.0500 ****
360  H         12.385812   12.996087   40.160000  H         1 MOL        0.4250 ****
361 Al         18.115812   10.916087    0.000000 Al         1 MOL        1.5750 ****
362 Si         18.875813    9.176087    2.680000 Si         1 MOL        2.1000 ****
363 Si         18.975812   12.126087    2.690000 Si         1 MOL        2.1000 ****
364Omg         18.685812    9.346087    1.060000  O         1 MOL       -1.1808 ****
365 Op         19.135813   12.086087    1.060000  O         1 MOL       -1.0500 ****
366 Oh         16.525813   11.066087    0.990000  O         1 MOL       -0.9500 ****
367 Ob         15.205812   12.646087    3.300000  O         1 MOL       -1.0500 ****
368 Ob         18.675812   10.626087    3.300000  O         1 MOL       -1.0500 ****
369 Ob         17.815812   13.136087    3.060000  O         1 MOL       -1.0500 ****
370  H         16.125813   10.316087    1.430000  H         1 MOL        0.4250 ****
371 Al         15.585812   15.396087    0.000000 Al         1 MOL        1.5750 ****
372 Si         16.335812   13.656087    2.680000 Si         1 MOL        2.1000 ****
373 Si         16.445813   16.606087    2.690000 Si         1 MOL        2.1000 ****
374 Op         16.145812   13.826087    1.060000  O         1 MOL       -1.0500 ****
375 Op         16.595813   16.576087    1.060000  O         1 MOL       -1.0500 ****
376 Oh         19.155812   15.546087    0.990000  O         1 MOL       -0.9500 ****
377 Ob         17.835813   17.126087    3.300000  O         1 MOL       -1.0500 ****
378 Ob         16.135813   15.106087    3.300000  O         1 MOL       -1.0500 ****
379 Ob         15.275812   17.626087    3.060000  O         1 MOL       -1.0500 ****
380  H         18.755813   14.796087    1.430000  H         1 MOL        0.4250 ****
381 Al         18.185812   16.886087    0.000000 Al         1 MOL        1.5750 ****
382 Si         17.335812    9.656087   38.900000 Si         1 MOL        2.1000 ****
383 Si         17.325812   15.676087   38.890000 Si         1 MOL        2.1000 ****
384Omg         17.535812    9.486087   40.520000  O         1 MOL       -1.1808 ****
385 Op         17.165813   15.706087   40.520000  O         1 MOL       -1.0500 ****
386 Oh         19.775813   16.726087   40.590000  O         1 MOL       -0.9500 ****
387 Ob         21.095813   15.156087   38.280000  O         1 MOL       -1.0500 ****
388 Ob         17.625812   17.176087   38.290000  O         1 MOL       -1.0500 ****
389 Ob         18.485813   14.656087   38.530000  O         1 MOL       -1.0500 ****
390  H         20.175812   17.476087   40.160000  H         1 MOL        0.4250 ****
391 Al         15.555812   12.396087    0.000000 Al         1 MOL        1.5750 ****
392 Si         19.965812   14.136087   38.900000 Si         1 MOL        2.1000 ****
393 Si         19.855812   11.186087   38.890000 Si         1 MOL        2.1000 ****
394 Op         20.155813   13.966087   40.520000  O         1 MOL       -1.0500 ****
395 Op         19.705813   11.216087   40.520000  O         1 MOL       -1.0500 ****
396 Oh         17.145812   12.246087   40.590000  O         1 MOL       -0.9500 ****
397 Ob         18.465812   10.666087   38.280000  O         1 MOL       -1.0500 ****
398 Ob         20.165813   12.686087   38.290000  O         1 MOL       -1.0500 ****
399 Ob         21.025813   10.166087   38.530000  O         1 MOL       -1.0500 ****
400  H         17.545813   12.996087   40.160000  H         1 MOL        0.4250 ****
401 Al         23.275813   10.916087    0.000000 Al         1 MOL        1.5750 ****
402 Si         24.035812    9.176087    2.680000 Si         1 MOL        2.1000 ****
403 Si         24.135813   12.126087    2.690000 Si         1 MOL        2.1000 ****
404 Op         23.845813    9.346087    1.060000  O         1 MOL       -1.0500 ****
405 Op         24.295812   12.086087    1.060000  O         1 MOL       -1.0500 ****
406 Oh         21.685812   11.066087    0.990000  O         1 MOL       -0.9500 ****
407 Ob         20.365812   12.646087    3.300000  O         1 MOL       -1.0500 ****
408 Ob         23.835813   10.626087    3.300000  O         1 MOL       -1.0500 ****
409 Ob         22.975812   13.136087    3.060000  O         1 MOL       -1.0500 ****
410  H         21.285812   10.316087    1.430000  H         1 MOL        0.4250 ****
411 Al         20.745812   15.396087    0.000000 Al         1 MOL        1.5750 ****
412 Si         21.495812   13.656087    2.680000 Si         1 MOL        2.1000 ****
413 Si         21.605812   16.606087    2.690000 Si         1 MOL        2.1000 ****
414 Op         21.305813   13.826087    1.060000  O         1 MOL       -1.0500 ****
415 Op         21.755812   16.576087    1.060000  O         1 MOL       -1.0500 ****
416 Oh         24.315812   15.546087    0.990000  O         1 MOL       -0.9500 ****
417 Ob         22.995812   17.126087    3.300000  O         1 MOL       -1.0500 ****
418 Ob         21.295813   15.106087    3.300000  O         1 MOL       -1.0500 ****
419 Ob         20.435812   17.626087    3.060000  O         1 MOL       -1.0500 ****
420  H         23.915813   14.796087    1.430000  H         1 MOL        0.4250 ****
421 Al         23.345813   16.886087    0.000000 Al         1 MOL        1.5750 ****
422 Si         22.495812    9.656087   38.900000 Si         1 MOL        2.1000 ****
423 Si         22.485813   15.676087   38.890000 Si         1 MOL        2.1000 ****
424 Op         22.695812    9.486087   40.520000  O         1 MOL       -1.0500 ****
425 Op         22.325812   15.706087   40.520000  O         1 MOL       -1.0500 ****
426 Oh         24.935812   16.726087   40.590000  O         1 MOL       -0.9500 ****
427 Ob         26.255813   15.156087   38.280000  O         1 MOL       -1.0500 ****
428 Ob         22.785812   17.176087   38.290000  O         1 MOL       -1.0500 ****
429 Ob         23.645812   14.656087   38.530000  O         1 MOL       -1.0500 ****
430  H         25.335813   17.476087   40.160000  H         1 MOL        0.4250 ****
431 Al         20.715812   12.396087    0.000000 Al         1 MOL        1.5750 ****
432 Si         25.125813   14.136087   38.900000 Si         1 MOL        2.1000 ****
433 Si         25.015813   11.186087   38.890000 Si         1 MOL        2.1000 ****
434 Op         25.315812   13.966087   40.520000  O         1 MOL       -1.0500 ****
435 Op         24.865812   11.216087   40.520000  O         1 MOL       -1.0500 ****
436 Oh         22.305813   12.246087   40.590000  O         1 MOL       -0.9500 ****
437 Ob         23.625813   10.666087   38.280000  O         1 MOL       -1.0500 ****
438 Ob         25.325813   12.686087   38.290000  O         1 MOL       -1.0500 ****
439 Ob         26.185812   10.166087   38.530000  O         1 MOL       -1.0500 ****
440  H         22.705813   12.996087   40.160000  H         1 MOL        0.4250 ****
441Mgo         28.435813   10.916087    0.000000 Mg         1 MOL        1.3600 ****
442 Si         29.195813    9.176087    2.680000 Si         1 MOL        2.1000 ****
443 Si         29.295812   12.126087    2.690000 Si         1 MOL        2.1000 ****
444Omg         29.005812    9.346087    1.060000  O         1 MOL       -1.1808 ****
445Omg         29.455813   12.086087    1.060000  O         1 MOL       -1.1808 ****
446Ohmg         26.845813   11.066087    0.990000  O         1 MOL       -1.0809 ****
447 Ob         25.525813   12.646087    3.300000  O         1 MOL       -1.0500 ****
448 Ob         28.995812   10.626087    3.300000  O         1 MOL       -1.0500 ****
449 Ob         28.135813   13.136087    3.060000  O         1 MOL       -1.0500 ****
450  H         26.445812   10.316087    1.430000  H         1 MOL        0.4250 ****
451 Al         25.905813   15.396087    0.000000 Al         1 MOL        1.5750 ****
452 Si         26.655813   13.656087    2.680000 Si         1 MOL        2.1000 ****
453 Si         26.765812   16.606087    2.690000 Si         1 MOL        2.1000 ****
454 Op         26.465812   13.826087    1.060000  O         1 MOL       -1.0500 ****
455Omg         26.915813   16.576087    1.060000  O         1 MOL       -1.1808 ****
456Ohmg         29.475813   15.546087    0.990000  O         1 MOL       -1.0809 ****
457 Ob         28.155813   17.126087    3.300000  O         1 MOL       -1.0500 ****
458 Ob         26.455813   15.106087    3.300000  O         1 MOL       -1.0500 ****
459 Ob         25.595813   17.626087    3.060000  O         1 MOL       -1.0500 ****
460  H         29.075813   14.796087    1.430000  H         1 MOL        0.4250 ****
461Mgo         28.505813   16.886087    0.000000 Mg         1 MOL        1.3600 ****
462 Si         27.655812    9.656087   38.900000 Si         1 MOL        2.1000 ****
463 Si         27.645812   15.676087   38.890000 Si         1 MOL        2.1000 ****
464Omg         27.855812    9.486087   40.520000  O         1 MOL       -1.1808 ****
465Omg         27.485813   15.706087   40.520000  O         1 MOL       -1.1808 ****
466Ohmg         30.095813   16.726087   40.590000  O         1 MOL       -1.0809 ****
467 Ob          0.455813   15.156087   38.280000  O         1 MOL       -1.0500 ****
468 Ob         27.945813   17.176087   38.290000  O         1 MOL       -1.0500 ****
469 Ob         28.805813   14.656087   38.530000  O         1 MOL       -1.0500 ****
470  H         30.495812   17.476087   40.160000  H         1 MOL        0.4250 ****
471 Al         25.875813   12.396087    0.000000 Al         1 MOL        1.5750 ****
472 Si         30.285812   14.136087   38.900000 Si         1 MOL        2.1000 ****
473 Si         30.175812   11.186087   38.890000 Si         1 MOL        2.1000 ****
474 Op         30.475812   13.966087   40.520000  O         1 MOL       -1.0500 ****
475Omg         30.025813   11.216087   40.520000  O         1 MOL       -1.1808 ****
476Ohmg         27.465812   12.246087   40.590000  O         1 MOL       -1.0809 ****
477 Ob         28.785813   10.666087   38.280000  O         1 MOL       -1.0500 ****
478 Ob         30.485813   12.686087   38.290000  O         1 MOL       -1.0500 ****
479 Ob          0.385813   10.166087   38.530000  O         1 MOL       -1.0500 ****
480  H         27.865813   12.996087   40.160000  H         1 MOL        0.4250 ****
481Mgo          2.725812   19.876087    0.000000 Mg         1 MOL        1.3600 ****
482 Si          3.485812   18.136087    2.680000 Si         1 MOL        2.1000 ****
483 Si          3.585812   21.086087    2.690000 Si         1 MOL        2.1000 ****
484Omg          3.285812   18.316087    1.060000  O         1 MOL       -1.1808 ****
485Omg          3.735812   21.056087    1.060000  O         1 MOL       -1.1808 ****
486Ohmg          1.135812   20.026087    0.990000  O         1 MOL       -1.0809 ****
487 Ob         30.775813   21.606087    3.300000  O         1 MOL       -1.0500 ****
488 Ob          3.275812   19.586087    3.300000  O         1 MOL       -1.0500 ****
489 Ob          2.415812   22.106087    3.060000  O         1 MOL       -1.0500 ****
490  H          0.735812   19.286087    1.430000  H         1 MOL        0.4250 ****
491 Al          0.185812   24.356087    0.000000 Al         1 MOL        1.5750 ****
492 Si          0.945812   22.626087    2.680000 Si         1 MOL        2.1000 ****
493 Si          1.045812   25.576087    2.690000 Si         1 MOL        2.1000 ****
494 Op          0.755812   22.796087    1.060000  O         1 MOL       -1.0500 ****
495 Op          1.195812   25.536087    1.060000  O         1 MOL       -1.0500 ****
496 Oh          3.755812   24.516087    0.990000  O         1 MOL       -0.9500 ****
497 Ob          2.435812   26.086087    3.300000  O         1 MOL       -1.0500 ****
498 Ob          0.745812   24.066087    3.300000  O         1 MOL       -1.0500 ****
499 Ob         30.845813   26.586087    3.060000  O         1 MOL       -1.0500 ****
500  H          3.355812   23.766087    1.430000  H         1 MOL        0.4250 ****
501 Al          2.785812   25.846087    0.000000 Al         1 MOL        1.5750 ****
502 Si          1.945812   18.616087   38.900000 Si         1 MOL        2.1000 ****
503 Si          1.925812   24.636087   38.890000 Si         1 MOL        2.1000 ****
504Omg          2.135812   18.446087   40.520000  O         1 MOL       -1.1808 ****
505 Op          1.775812   24.666087   40.520000  O         1 MOL       -1.0500 ****
506 Oh          4.375812   25.696087   40.590000  O         1 MOL       -0.9500 ****
507 Ob          5.695812   24.116087   38.280000  O         1 MOL       -1.0500 ****
508 Ob          2.225812   26.136087   38.290000  O         1 MOL       -1.0500 ****
509 Ob          3.085812   23.616087   38.530000  O         1 MOL       -1.0500 ****
510  H          4.775812   26.446087   40.160000  H         1 MOL        0.4250 ****
511 Al          0.165812   21.366087    0.000000 Al         1 MOL        1.5750 ****
512 Si          4.565812   23.106087   38.900000 Si         1 MOL        2.1000 ****
513 Si          4.465812   20.156087   38.890000 Si         1 MOL        2.1000 ****
514 Op          4.755812   22.926087   40.520000  O         1 MOL       -1.0500 ****
515Omg          4.315812   20.186087   40.520000  O         1 MOL       -1.1808 ****
516Ohmg          1.755812   21.216087   40.590000  O         1 MOL       -1.0809 ****
517 Ob          3.075812   19.636087   38.280000  O         1 MOL       -1.0500 ****
518 Ob          4.765812   21.656087   38.290000  O         1 MOL       -1.0500 ****
519 Ob          5.625812   19.136087   38.530000  O         1 MOL       -1.0500 ****
520  H          2.155812   21.956087   40.160000  H         1 MOL        0.4250 ****
521 Al          7.885812   19.876087    0.000000 Al         1 MOL        1.5750 ****
522 Si          8.645812   18.136087    2.680000 Si         1 MOL        2.1000 ****
523 Si          8.745812   21.086087    2.690000 Si         1 MOL        2.1000 ****
524Omg          8.445812   18.316087    1.060000  O         1 MOL       -1.1808 ****
525 Op          8.895812   21.056087    1.060000  O         1 MOL       -1.0500 ****
526 Oh          6.295812   20.026087    0.990000  O         1 MOL       -0.9500 ****
527 Ob          4.975812   21.606087    3.300000  O         1 MOL       -1.0500 ****
528 Ob          8.435812   19.586087    3.300000  O         1 MOL       -1.0500 ****
529 Ob          7.575812   22.106087    3.060000  O         1 MOL       -1.0500 ****
530  H          5.895812   19.286087    1.430000  H         1 MOL        0.4250 ****
531 Al          5.345812   24.356087    0.000000 Al         1 MOL        1.5750 ****
532 Si          6.105812   22.626087    2.680000 Si         1 MOL        2.1000 ****
533 Si          6.205812   25.576087    2.690000 Si         1 MOL        2.1000 ****
534 Op          5.915812   22.796087    1.060000  O         1 MOL       -1.0500 ****
535Omg          6.355812   25.536087    1.060000  O         1 MOL       -1.1808 ****
536Ohmg          8.915812   24.516087    0.990000  O         1 MOL       -1.0809 ****
537 Ob          7.595812   26.086087    3.300000  O         1 MOL       -1.0500 ****
538 Ob          5.905812   24.066087    3.300000  O         1 MOL       -1.0500 ****
539 Ob          5.045812   26.586087    3.060000  O         1 MOL       -1.0500 ****
540  H          8.515812   23.766087    1.430000  H         1 MOL        0.4250 ****
541Mgo          7.945812   25.846087    0.000000 Mg         1 MOL        1.3600 ****
542 Si          7.105812   18.616087   38.900000 Si         1 MOL        2.1000 ****
543 Si          7.085812   24.636087   38.890000 Si         1 MOL        2.1000 ****
544Omg          7.295812   18.446087   40.520000  O         1 MOL       -1.1808 ****
545Omg          6.935812   24.666087   40.520000  O         1 MOL       -1.1808 ****
546Ohmg          9.535812   25.696087   40.590000  O         1 MOL       -1.0809 ****
547 Ob         10.855812   24.116087   38.280000  O         1 MOL       -1.0500 ****
548 Ob          7.385812   26.136087   38.290000  O         1 MOL       -1.0500 ****
549 Ob          8.245812   23.616087   38.530000  O         1 MOL       -1.0500 ****
550  H          9.935812   26.446087   40.160000  H         1 MOL        0.4250 ****
551 Al          5.325812   21.366087    0.000000 Al         1 MOL        1.5750 ****
552 Si          9.725812   23.106087   38.900000 Si         1 MOL        2.1000 ****
553 Si          9.625812   20.156087   38.890000 Si         1 MOL        2.1000 ****
554 Op          9.915812   22.926087   40.520000  O         1 MOL       -1.0500 ****
555 Op          9.475812   20.186087   40.520000  O         1 MOL       -1.0500 ****
556 Oh          6.915812   21.216087   40.590000  O         1 MOL       -0.9500 ****
557 Ob          8.235812   19.636087   38.280000  O         1 MOL       -1.0500 ****
558 Ob          9.925812   21.656087   38.290000  O         1 MOL       -1.0500 ****
559 Ob         10.785812   19.136087   38.530000  O         1 MOL       -1.0500 ****
560  H          7.315812   21.956087   40.160000  H         1 MOL        0.4250 ****
561Mgo         13.045812   19.876087    0.000000 Mg         1 MOL        1.3600 ****
562 Si         13.805812   18.136087    2.680000 Si         1 MOL        2.1000 ****
563 Si         13.905812   21.086087    2.690000 Si         1 MOL        2.1000 ****
564Omg         13.605812   18.316087    1.060000  O         1 MOL       -1.1808 ****
565Omg         14.055812   21.056087    1.060000  O         1 MOL       -1.1808 ****
566Ohmg         11.455812   20.026087    0.990000  O         1 MOL       -1.0809 ****
567 Ob         10.135812   21.606087    3.300000  O         1 MOL       -1.0500 ****
568 Ob         13.595812   19.586087    3.300000  O         1 MOL       -1.0500 ****
569 Ob         12.735812   22.106087    3.060000  O         1 MOL       -1.0500 ****
570  H         11.055812   19.286087    1.430000  H         1 MOL        0.4250 ****
571 Al         10.505812   24.356087    0.000000 Al         1 MOL        1.5750 ****
572 Si         11.265812   22.626087    2.680000 Si         1 MOL        2.1000 ****
573 Si         11.365812   25.576087    2.690000 Si         1 MOL        2.1000 ****
574 Op         11.075812   22.796087    1.060000  O         1 MOL       -1.0500 ****
575 Op         11.515812   25.536087    1.060000  O         1 MOL       -1.0500 ****
576 Oh         14.075812   24.516087    0.990000  O         1 MOL       -0.9500 ****
577 Ob         12.755812   26.086087    3.300000  O         1 MOL       -1.0500 ****
578 Ob         11.065812   24.066087    3.300000  O         1 MOL       -1.0500 ****
579 Ob         10.205812   26.586087    3.060000  O         1 MOL       -1.0500 ****
580  H         13.675812   23.766087    1.430000  H         1 MOL        0.4250 ****
581 Al         13.105812   25.846087    0.000000 Al         1 MOL        1.5750 ****
582 Si         12.265812   18.616087   38.900000 Si         1 MOL        2.1000 ****
583 Si         12.245812   24.636087   38.890000 Si         1 MOL        2.1000 ****
584Omg         12.455812   18.446087   40.520000  O         1 MOL       -1.1808 ****
585 Op         12.095812   24.666087   40.520000  O         1 MOL       -1.0500 ****
586 Oh         14.695812   25.696087   40.590000  O         1 MOL       -0.9500 ****
587 Ob         16.015813   24.116087   38.280000  O         1 MOL       -1.0500 ****
588 Ob         12.545812   26.136087   38.290000  O         1 MOL       -1.0500 ****
589 Ob         13.405812   23.616087   38.530000  O         1 MOL       -1.0500 ****
590  H         15.095812   26.446087   40.160000  H         1 MOL        0.4250 ****
591 Al         10.485812   21.366087    0.000000 Al         1 MOL        1.5750 ****
592 Si         14.885813   23.106087   38.900000 Si         1 MOL        2.1000 ****
593 Si         14.785812   20.156087   38.890000 Si         1 MOL        2.1000 ****
594 Op         15.075812   22.926087   40.520000  O         1 MOL       -1.0500 ****
595Omg         14.635812   20.186087   40.520000  O         1 MOL       -1.1808 ****
596Ohmg         12.075812   21.216087   40.590000  O         1 MOL       -1.0809 ****
597 Ob         13.395812   19.636087   38.280000  O         1 MOL       -1.0500 ****
598 Ob         15.085812   21.656087   38.290000  O         1 MOL       -1.0500 ****
599 Ob         15.945812   19.136087   38.530000  O         1 MOL       -1.0500 ****
600  H         12.475812   21.956087   40.160000  H         1 MOL        0.4250 ****
601 Al         18.205813   19.876087    0.000000 Al         1 MOL        1.5750 ****
602 Si         18.965812   18.136087    2.680000 Si         1 MOL        2.1000 ****
603 Si         19.065812   21.086087    2.690000 Si         1 MOL        2.1000 ****
604 Op         18.765813   18.316087    1.060000  O         1 MOL       -1.0500 ****
605 Op         19.215812   21.056087    1.060000  O         1 MOL       -1.0500 ****
606 Oh         16.615812   20.026087    0.990000  O         1 MOL       -0.9500 ****
607 Ob         15.295812   21.606087    3.300000  O         1 MOL       -1.0500 ****
608 Ob         18.755813   19.586087    3.300000  O         1 MOL       -1.0500 ****
609 Ob         17.895812   22.106087    3.060000  O         1 MOL       -1.0500 ****
610  H         16.215812   19.286087    1.430000  H         1 MOL        0.4250 ****
611 Al         15.665812   24.356087    0.000000 Al         1 MOL        1.5750 ****
612 Si         16.425812   22.626087    2.680000 Si         1 MOL        2.1000 ****
613 Si         16.525813   25.576087    2.690000 Si         1 MOL        2.1000 ****
614 Op         16.235813   22.796087    1.060000  O         1 MOL       -1.0500 ****
615 Op         16.675812   25.536087    1.060000  O         1 MOL       -1.0500 ****
616 Oh         19.235813   24.516087    0.990000  O         1 MOL       -0.9500 ****
617 Ob         17.915813   26.086087    3.300000  O         1 MOL       -1.0500 ****
618 Ob         16.225812   24.066087    3.300000  O         1 MOL       -1.0500 ****
619 Ob         15.365812   26.586087    3.060000  O         1 MOL       -1.0500 ****
620  H         18.835812   23.766087    1.430000  H         1 MOL        0.4250 ****
621 Al         18.265812   25.846087    0.000000 Al         1 MOL        1.5750 ****
622 Si         17.425812   18.616087   38.900000 Si         1 MOL        2.1000 ****
623 Si         17.405813   24.636087   38.890000 Si         1 MOL        2.1000 ****
624 Op         17.615812   18.446087   40.520000  O         1 MOL       -1.0500 ****
625 Op         17.255812   24.666087   40.520000  O         1 MOL       -1.0500 ****
626 Oh         19.855812   25.696087   40.590000  O         1 MOL       -0.9500 ****
627 Ob         21.175812   24.116087   38.280000  O         1 MOL       -1.0500 ****
628 Ob         17.705813   26.136087   38.290000  O         1 MOL       -1.0500 ****
629 Ob         18.565812   23.616087   38.530000  O         1 MOL       -1.0500 ****
630  H         20.255812   26.446087   40.160000  H         1 MOL        0.4250 ****
631 Al         15.645812   21.366087    0.000000 Al         1 MOL        1.5750 ****
632 Si         20.045813   23.106087   38.900000 Si         1 MOL        2.1000 ****
633 Si         19.945813   20.156087   38.890000 Si         1 MOL        2.1000 ****
634 Op         20.235813   22.926087   40.520000  O         1 MOL       -1.0500 ****
635 Op         19.795812   20.186087   40.520000  O         1 MOL       -1.0500 ****
636 Oh         17.235813   21.216087   40.590000  O         1 MOL       -0.9500 ****
637 Ob         18.555813   19.636087   38.280000  O         1 MOL       -1.0500 ****
638 Ob         20.245812   21.656087   38.290000  O         1 MOL       -1.0500 ****
639 Ob         21.105812   19.136087   38.530000  O         1 MOL       -1.0500 ****
640  H         17.635813   21.956087   40.160000  H         1 MOL        0.4250 ****
641 Al         23.365812   19.876087    0.000000 Al         1 MOL        1.5750 ****
642 Si         24.125813   18.136087    2.680000 Si         1 MOL        2.1000 ****
643 Si         24.225812   21.086087    2.690000 Si         1 MOL        2.1000 ****
644 Op         23.925812   18.316087    1.060000  O         1 MOL       -1.0500 ****
645 Op         24.375813   21.056087    1.060000  O         1 MOL       -1.0500 ****
646 Oh         21.775813   20.026087    0.990000  O         1 MOL       -0.9500 ****
647 Ob         20.455813   21.606087    3.300000  O         1 MOL       -1.0500 ****
648 Ob         23.915813   19.586087    3.300000  O         1 MOL       -1.0500 ****
649 Ob         23.055813   22.106087    3.060000  O         1 MOL       -1.0500 ****
650  H         21.375813   19.286087    1.430000  H         1 MOL        0.4250 ****
651 Al         20.825812   24.356087    0.000000 Al         1 MOL        1.5750 ****
652 Si         21.585813   22.626087    2.680000 Si         1 MOL        2.1000 ****
653 Si         21.685812   25.576087    2.690000 Si         1 MOL        2.1000 ****
654 Op         21.395812   22.796087    1.060000  O         1 MOL       -1.0500 ****
655 Op         21.835813   25.536087    1.060000  O         1 MOL       -1.0500 ****
656Ohmg         24.395813   24.516087    0.990000  O         1 MOL       -1.0809 ****
657 Ob         23.075812   26.086087    3.300000  O         1 MOL       -1.0500 ****
658 Ob         21.385813   24.066087    3.300000  O         1 MOL       -1.0500 ****
659 Ob         20.525813   26.586087    3.060000  O         1 MOL       -1.0500 ****
660  H         23.995812   23.766087    1.430000  H         1 MOL        0.4250 ****
661 Al         23.425812   25.846087    0.000000 Al         1 MOL        1.5750 ****
662 Si         22.585813   18.616087   38.900000 Si         1 MOL        2.1000 ****
663 Si         22.565812   24.636087   38.890000 Si         1 MOL        2.1000 ****
664 Op         22.775813   18.446087   40.520000  O         1 MOL       -1.0500 ****
665 Op         22.415813   24.666087   40.520000  O         1 MOL       -1.0500 ****
666Ohmg         25.015813   25.696087   40.590000  O         1 MOL       -1.0809 ****
667 Ob         26.335813   24.116087   38.280000  O         1 MOL       -1.0500 ****
668 Ob         22.865813   26.136087   38.290000  O         1 MOL       -1.0500 ****
669 Ob         23.725813   23.616087   38.530000  O         1 MOL       -1.0500 ****
670  H         25.415813   26.446087   40.160000  H         1 MOL        0.4250 ****
671 Al         20.805813   21.366087    0.000000 Al         1 MOL        1.5750 ****
672 Si         25.205813   23.106087   38.900000 Si         1 MOL        2.1000 ****
673 Si         25.105812   20.156087   38.890000 Si         1 MOL        2.1000 ****
674Omg         25.395812   22.926087   40.520000  O         1 MOL       -1.1808 ****
675 Op         24.955813   20.186087   40.520000  O         1 MOL       -1.0500 ****
676 Oh         22.395812   21.216087   40.590000  O         1 MOL       -0.9500 ****
677 Ob         23.715812   19.636087   38.280000  O         1 MOL       -1.0500 ****
678 Ob         25.405813   21.656087   38.290000  O         1 MOL       -1.0500 ****
679 Ob         26.265813   19.136087   38.530000  O         1 MOL       -1.0500 ****
680  H         22.795813   21.956087   40.160000  H         1 MOL        0.4250 ****
681 Al         28.525813   19.876087    0.000000 Al         1 MOL        1.5750 ****
682 Si         29.285812   18.136087    2.680000 Si         1 MOL        2.1000 ****
683 Si         29.385813   21.086087    2.690000 Si         1 MOL        2.1000 ****
684Omg         29.085813   18.316087    1.060000  O         1 MOL       -1.1808 ****
685 Op         29.535812   21.056087    1.060000  O         1 MOL       -1.0500 ****
686 Oh         26.935813   20.026087    0.990000  O         1 MOL       -0.9500 ****
687 Ob         25.615813   21.606087    3.300000  O         1 MOL       -1.0500 ****
688 Ob         29.075813   19.586087    3.300000  O         1 MOL       -1.0500 ****
689 Ob         28.215812   22.106087    3.060000  O         1 MOL       -1.0500 ****
690  H         26.535812   19.286087    1.430000  H         1 MOL        0.4250 ****
691Mgo         25.985813   24.356087    0.000000 Mg         1 MOL        1.3600 ****
692 Si         26.745812   22.626087    2.680000 Si         1 MOL        2.1000 ****
693 Si         26.845813   25.576087    2.690000 Si         1 MOL        2.1000 ****
694Omg         26.555813   22.796087    1.060000  O         1 MOL       -1.1808 ****
695Omg         26.995812   25.536087    1.060000  O         1 MOL       -1.1808 ****
696 Oh         29.555813   24.516087    0.990000  O         1 MOL       -0.9500 ****
697 Ob         28.235813   26.086087    3.300000  O         1 MOL       -1.0500 ****
698 Ob         26.545813   24.066087    3.300000  O         1 MOL       -1.0500 ****
699 Ob         25.685813   26.586087    3.060000  O         1 MOL       -1.0500 ****
700  H         29.155813   23.766087    1.430000  H         1 MOL        0.4250 ****
701 Al         28.585813   25.846087    0.000000 Al         1 MOL        1.5750 ****
702 Si         27.745812   18.616087   38.900000 Si         1 MOL        2.1000 ****
703 Si         27.725812   24.636087   38.890000 Si         1 MOL        2.1000 ****
704Omg         27.935812   18.446087   40.520000  O         1 MOL       -1.1808 ****
705Omg         27.575812   24.666087   40.520000  O         1 MOL       -1.1808 ****
706 Oh         30.175812   25.696087   40.590000  O         1 MOL       -0.9500 ****
707 Ob          0.535813   24.116087   38.280000  O         1 MOL       -1.0500 ****
708 Ob         28.025813   26.136087   38.290000  O         1 MOL       -1.0500 ****
709 Ob         28.885813   23.616087   38.530000  O         1 MOL       -1.0500 ****
710  H         30.575812   26.446087   40.160000  H         1 MOL        0.4250 ****
711 Al         25.965813   21.366087    0.000000 Al         1 MOL        1.5750 ****
712 Si         30.365813   23.106087   38.900000 Si         1 MOL        2.1000 ****
713 Si         30.265813   20.156087   38.890000 Si         1 MOL        2.1000 ****
714 Op         30.555813   22.926087   40.520000  O         1 MOL       -1.0500 ****
715 Op         30.115812   20.186087   40.520000  O         1 MOL       -1.0500 ****
716 Oh         27.555813   21.216087   40.590000  O         1 MOL       -0.9500 ****
717 Ob         28.875813   19.636087   38.280000  O         1 MOL       -1.0500 ****
718 Ob         30.565812   21.656087   38.290000  O         1 MOL       -1.0500 ****
719 Ob          0.465812   19.136087   38.530000  O         1 MOL       -1.0500 ****
720  H         27.955813   21.956087   40.160000  H         1 MOL        0.4250 ****
721Mgo          2.805812   28.846087    0.000000 Mg         1 MOL        1.3600 ****
722 Si          3.565812   27.106087    2.680000 Si         1 MOL        2.1000 ****
723 Si          3.665812   30.056087    2.690000 Si         1 MOL        2.1000 ****
724Omg          3.375812   27.276087    1.060000  O         1 MOL       -1.1808 ****
725Omg          3.825812   30.026087    1.060000  O         1 MOL       -1.1808 ****
726Ohmg          1.215812   28.996087    0.990000  O         1 MOL       -1.0809 ****
727 Ob         30.855812   30.576087    3.300000  O         1 MOL       -1.0500 ****
728 Ob          3.365812   28.556087    3.300000  O         1 MOL       -1.0500 ****
729 Ob          2.505812   31.076087    3.060000  O         1 MOL       -1.0500 ****
730  H          0.815812   28.246087    1.430000  H         1 MOL        0.4250 ****
731 Al          0.275812   33.326087    0.000000 Al         1 MOL        1.5750 ****
732 Si          1.025812   31.586087    2.680000 Si         1 MOL        2.1000 ****
733 Si          1.135812   34.536087    2.690000 Si         1 MOL        2.1000 ****
734 Op          0.835812   31.756087    1.060000  O         1 MOL       -1.0500 ****
735 Op          1.285812   34.506087    1.060000  O         1 MOL       -1.0500 ****
736 Oh          3.845812   33.476087    0.990000  O         1 MOL       -0.9500 ****
737 Ob          2.515812   35.056087    3.300000  O         1 MOL       -1.0500 ****
738 Ob          0.825812   33.036087    3.300000  O         1 MOL       -1.0500 ****
739 Ob         30.925812   35.556087    3.060000  O         1 MOL       -1.0500 ****
740  H          3.445812   32.736087    1.430000  H         1 MOL        0.4250 ****
741 Al          2.865812   34.816087    0.000000 Al         1 MOL        1.5750 ****
742 Si          2.025812   27.586087   38.900000 Si         1 MOL        2.1000 ****
743 Si          2.015812   33.606087   38.890000 Si         1 MOL        2.1000 ****
744Omg          2.225812   27.416087   40.520000  O         1 MOL       -1.1808 ****
745 Op          1.855812   33.636087   40.520000  O         1 MOL       -1.0500 ****
746 Oh          4.465812   34.666087   40.590000  O         1 MOL       -0.9500 ****
747 Ob          5.785812   33.086087   38.280000  O         1 MOL       -1.0500 ****
748 Ob          2.315812   35.106087   38.290000  O         1 MOL       -1.0500 ****
749 Ob          3.175812   32.586087   38.530000  O         1 MOL       -1.0500 ****
750  H          4.855812   35.406087   40.160000  H         1 MOL        0.4250 ****
751 Al          0.245812   30.326087    0.000000 Al         1 MOL        1.5750 ****
752 Si          4.655812   32.066087   38.900000 Si         1 MOL        2.1000 ****
753 Si          4.545812   29.116087   38.890000 Si         1 MOL        2.1000 ****
754 Op          4.845812   31.896087   40.520000  O         1 MOL       -1.0500 ****
755Omg          4.395812   29.156087   40.520000  O         1 MOL       -1.1808 ****
756Ohmg          1.835812   30.176087   40.590000  O         1 MOL       -1.0809 ****
757 Ob          3.155812   28.606087   38.280000  O         1 MOL       -1.0500 ****
758 Ob          4.855812   30.626087   38.290000  O         1 MOL       -1.0500 ****
759 Ob          5.715812   28.106087   38.530000  O         1 MOL       -1.0500 ****
760  H          2.235812   30.926087   40.160000  H         1 MOL        0.4250 ****
761 Al          7.965812   28.846087    0.000000 Al         1 MOL        1.5750 ****
762 Si          8.725812   27.106087    2.680000 Si         1 MOL        2.1000 ****
763 Si          8.825812   30.056087    2.690000 Si         1 MOL        2.1000 ****
764Omg          8.535812   27.276087    1.060000  O         1 MOL       -1.1808 ****
765 Op          8.985812   30.026087    1.060000  O         1 MOL       -1.0500 ****
766 Oh          6.375812   28.996087    0.990000  O         1 MOL       -0.9500 ****
767 Ob          5.055812   30.576087    3.300000  O         1 MOL       -1.0500 ****
768 Ob          8.525812   28.556087    3.300000  O         1 MOL       -1.0500 ****
769 Ob          7.665812   31.076087    3.060000  O         1 MOL       -1.0500 ****
770  H          5.975812   28.246087    1.430000  H         1 MOL        0.4250 ****
771 Al          5.435812   33.326087    0.000000 Al         1 MOL        1.5750 ****
772 Si          6.185812   31.586087    2.680000 Si         1 MOL        2.1000 ****
773 Si          6.295812   34.536087    2.690000 Si         1 MOL        2.1000 ****
774 Op          5.995812   31.756087    1.060000  O         1 MOL       -1.0500 ****
775Omg          6.445812   34.506087    1.060000  O         1 MOL       -1.1808 ****
776Ohmg          9.005812   33.476087    0.990000  O         1 MOL       -1.0809 ****
777 Ob          7.675812   35.056087    3.300000  O         1 MOL       -1.0500 ****
778 Ob          5.985812   33.036087    3.300000  O         1 MOL       -1.0500 ****
779 Ob          5.125812   35.556087    3.060000  O         1 MOL       -1.0500 ****
780  H          8.605812   32.736087    1.430000  H         1 MOL        0.4250 ****
781Mgo          8.025812   34.816087    0.000000 Mg         1 MOL        1.3600 ****
782 Si          7.185812   27.586087   38.900000 Si         1 MOL        2.1000 ****
783 Si          7.175812   33.606087   38.890000 Si         1 MOL        2.1000 ****
784Omg          7.385812   27.416087   40.520000  O         1 MOL       -1.1808 ****
785Omg          7.015812   33.636087   40.520000  O         1 MOL       -1.1808 ****
786Ohmg          9.625812   34.666087   40.590000  O         1 MOL       -1.0809 ****
787 Ob         10.945812   33.086087   38.280000  O         1 MOL       -1.0500 ****
788 Ob          7.475812   35.106087   38.290000  O         1 MOL       -1.0500 ****
789 Ob          8.335812   32.586087   38.530000  O         1 MOL       -1.0500 ****
790  H         10.015812   35.406087   40.160000  H         1 MOL        0.4250 ****
791 Al          5.405812   30.326087    0.000000 Al         1 MOL        1.5750 ****
792 Si          9.815812   32.066087   38.900000 Si         1 MOL        2.1000 ****
793 Si          9.705812   29.116087   38.890000 Si         1 MOL        2.1000 ****
794 Op         10.005812   31.896087   40.520000  O         1 MOL       -1.0500 ****
795 Op          9.555812   29.156087   40.520000  O         1 MOL       -1.0500 ****
796 Oh          6.995812   30.176087   40.590000  O         1 MOL       -0.9500 ****
797 Ob          8.315812   28.606087   38.280000  O         1 MOL       -1.0500 ****
798 Ob         10.015812   30.626087   38.290000  O         1 MOL       -1.0500 ****
799 Ob         10.875812   28.106087   38.530000  O         1 MOL       -1.0500 ****
800  H          7.395812   30.926087   40.160000  H         1 MOL        0.4250 ****
801 Al         13.125812   28.846087    0.000000 Al         1 MOL        1.5750 ****
802 Si         13.885812   27.106087    2.680000 Si         1 MOL        2.1000 ****
803 Si         13.985812   30.056087    2.690000 Si         1 MOL        2.1000 ****
804 Op         13.695812   27.276087    1.060000  O         1 MOL       -1.0500 ****
805Omg         14.145812   30.026087    1.060000  O         1 MOL       -1.1808 ****
806 Oh         11.535812   28.996087    0.990000  O         1 MOL       -0.9500 ****
807 Ob         10.215812   30.576087    3.300000  O         1 MOL       -1.0500 ****
808 Ob         13.685812   28.556087    3.300000  O         1 MOL       -1.0500 ****
809 Ob         12.825812   31.076087    3.060000  O         1 MOL       -1.0500 ****
810  H         11.135812   28.246087    1.430000  H         1 MOL        0.4250 ****
811 Al         10.595812   33.326087    0.000000 Al         1 MOL        1.5750 ****
812 Si         11.345812   31.586087    2.680000 Si         1 MOL        2.1000 ****
813 Si         11.455812   34.536087    2.690000 Si         1 MOL        2.1000 ****
814 Op         11.155812   31.756087    1.060000  O         1 MOL       -1.0500 ****
815 Op         11.605812   34.506087    1.060000  O         1 MOL       -1.0500 ****
816 Oh         14.165812   33.476087    0.990000  O         1 MOL       -0.9500 ****
817 Ob         12.835812   35.056087    3.300000  O         1 MOL       -1.0500 ****
818 Ob         11.145812   33.036087    3.300000  O         1 MOL       -1.0500 ****
819 Ob         10.285812   35.556087    3.060000  O         1 MOL       -1.0500 ****
820  H         13.765812   32.736087    1.430000  H         1 MOL        0.4250 ****
821 Al         13.185812   34.816087    0.000000 Al         1 MOL        1.5750 ****
822 Si         12.345812   27.586087   38.900000 Si         1 MOL        2.1000 ****
823 Si         12.335812   33.606087   38.890000 Si         1 MOL        2.1000 ****
824 Op         12.545812   27.416087   40.520000  O         1 MOL       -1.0500 ****
825 Op         12.175812   33.636087   40.520000  O         1 MOL       -1.0500 ****
826 Oh         14.785812   34.666087   40.590000  O         1 MOL       -0.9500 ****
827 Ob         16.105812   33.086087   38.280000  O         1 MOL       -1.0500 ****
828 Ob         12.635812   35.106087   38.290000  O         1 MOL       -1.0500 ****
829 Ob         13.495812   32.586087   38.530000  O         1 MOL       -1.0500 ****
830  H         15.175812   35.406087   40.160000  H         1 MOL        0.4250 ****
831 Al         10.565812   30.326087    0.000000 Al         1 MOL        1.5750 ****
832 Si         14.975812   32.066087   38.900000 Si         1 MOL        2.1000 ****
833 Si         14.865812   29.116087   38.890000 Si         1 MOL        2.1000 ****
834Omg         15.165812   31.896087   40.520000  O         1 MOL       -1.1808 ****
835Omg         14.715812   29.156087   40.520000  O         1 MOL       -1.1808 ****
836 Oh         12.155812   30.176087   40.590000  O         1 MOL       -0.9500 ****
837 Ob         13.475812   28.606087   38.280000  O         1 MOL       -1.0500 ****
838 Ob         15.175812   30.626087   38.290000  O         1 MOL       -1.0500 ****
839 Ob         16.035812   28.106087   38.530000  O         1 MOL       -1.0500 ****
840  H         12.555812   30.926087   40.160000  H         1 MOL        0.4250 ****
841 Al         18.285812   28.846087    0.000000 Al         1 MOL        1.5750 ****
842 Si         19.045813   27.106087    2.680000 Si         1 MOL        2.1000 ****
843 Si         19.145812   30.056087    2.690000 Si         1 MOL        2.1000 ****
844 Op         18.855812   27.276087    1.060000  O         1 MOL       -1.0500 ****
845 Op         19.305813   30.026087    1.060000  O         1 MOL       -1.0500 ****
846Ohmg         16.695812   28.996087    0.990000  O         1 MOL       -1.0809 ****
847 Ob         15.375812   30.576087    3.300000  O         1 MOL       -1.0500 ****
848 Ob         18.845813   28.556087    3.300000  O         1 MOL       -1.0500 ****
849 Ob         17.985813   31.076087    3.060000  O         1 MOL       -1.0500 ****
850  H         16.295813   28.246087    1.430000  H         1 MOL        0.4250 ****
851 Al         15.755812   33.326087    0.000000 Al         1 MOL        1.5750 ****
852 Si         16.505812   31.586087    2.680000 Si         1 MOL        2.1000 ****
853 Si         16.615812   34.536087    2.690000 Si         1 MOL        2.1000 ****
854Omg         16.315812   31.756087    1.060000  O         1 MOL       -1.1808 ****
855 Op         16.765813   34.506087    1.060000  O         1 MOL       -1.0500 ****
856 Oh         19.325812   33.476087    0.990000  O         1 MOL       -0.9500 ****
857 Ob         17.995812   35.056087    3.300000  O         1 MOL       -1.0500 ****
858 Ob         16.305813   33.036087    3.300000  O         1 MOL       -1.0500 ****
859 Ob         15.445812   35.556087    3.060000  O         1 MOL       -1.0500 ****
860  H         18.925812   32.736087    1.430000  H         1 MOL        0.4250 ****
861 Al         18.345813   34.816087    0.000000 Al         1 MOL        1.5750 ****
862 Si         17.505812   27.586087   38.900000 Si         1 MOL        2.1000 ****
863 Si         17.495812   33.606087   38.890000 Si         1 MOL        2.1000 ****
864 Op         17.705813   27.416087   40.520000  O         1 MOL       -1.0500 ****
865 Op         17.335812   33.636087   40.520000  O         1 MOL       -1.0500 ****
866 Oh         19.945813   34.666087   40.590000  O         1 MOL       -0.9500 ****
867 Ob         21.265813   33.086087   38.280000  O         1 MOL       -1.0500 ****
868 Ob         17.795812   35.106087   38.290000  O         1 MOL       -1.0500 ****
869 Ob         18.655813   32.586087   38.530000  O         1 MOL       -1.0500 ****
870  H         20.335813   35.406087   40.160000  H         1 MOL        0.4250 ****
871Mgo         15.725812   30.326087    0.000000 Mg         1 MOL        1.3600 ****
872 Si         20.135813   32.066087   38.900000 Si         1 MOL        2.1000 ****
873 Si         20.025813   29.116087   38.890000 Si         1 MOL        2.1000 ****
874 Op         20.325812   31.896087   40.520000  O         1 MOL       -1.0500 ****
875 Op         19.875813   29.156087   40.520000  O         1 MOL       -1.0500 ****
876Ohmg         17.315812   30.176087   40.590000  O         1 MOL       -1.0809 ****
877 Ob         18.635813   28.606087   38.280000  O         1 MOL       -1.0500 ****
878 Ob         20.335813   30.626087   38.290000  O         1 MOL       -1.0500 ****
879 Ob         21.195813   28.106087   38.530000  O         1 MOL       -1.0500 ****
880  H         17.715812   30.926087   40.160000  H         1 MOL        0.4250 ****
881 Al         23.445813   28.846087    0.000000 Al         1 MOL        1.5750 ****
882 Si         24.205813   27.106087    2.680000 Si         1 MOL        2.1000 ****
883 Si         24.305813   30.056087    2.690000 Si         1 MOL        2.1000 ****
884 Op         24.015813   27.276087    1.060000  O         1 MOL       -1.0500 ****
885Omg         24.465812   30.026087    1.060000  O         1 MOL       -1.1808 ****
886 Oh         21.855812   28.996087    0.990000  O         1 MOL       -0.9500 ****
887 Ob         20.535812   30.576087    3.300000  O         1 MOL       -1.0500 ****
888 Ob         24.005812   28.556087    3.300000  O         1 MOL       -1.0500 ****
889 Ob         23.145813   31.076087    3.060000  O         1 MOL       -1.0500 ****
890  H         21.455813   28.246087    1.430000  H         1 MOL        0.4250 ****
891 Al         20.915813   33.326087    0.000000 Al         1 MOL        1.5750 ****
892 Si         21.665813   31.586087    2.680000 Si         1 MOL        2.1000 ****
893 Si         21.775813   34.536087    2.690000 Si         1 MOL        2.1000 ****
894 Op         21.475812   31.756087    1.060000  O         1 MOL       -1.0500 ****
895 Op         21.925812   34.506087    1.060000  O         1 MOL       -1.0500 ****
896 Oh         24.485813   33.476087    0.990000  O         1 MOL       -0.9500 ****
897 Ob         23.155813   35.056087    3.300000  O         1 MOL       -1.0500 ****
898 Ob         21.465812   33.036087    3.300000  O         1 MOL       -1.0500 ****
899 Ob         20.605812   35.556087    3.060000  O         1 MOL       -1.0500 ****
900  H         24.085813   32.736087    1.430000  H         1 MOL        0.4250 ****
901 Al         23.505813   34.816087    0.000000 Al         1 MOL        1.5750 ****
902 Si         22.665813   27.586087   38.900000 Si         1 MOL        2.1000 ****
903 Si         22.655812   33.606087   38.890000 Si         1 MOL        2.1000 ****
904 Op         22.865813   27.416087   40.520000  O         1 MOL       -1.0500 ****
905 Op         22.495812   33.636087   40.520000  O         1 MOL       -1.0500 ****
906 Oh         25.105812   34.666087   40.590000  O         1 MOL       -0.9500 ****
907 Ob         26.425812   33.086087   38.280000  O         1 MOL       -1.0500 ****
908 Ob         22.955813   35.106087   38.290000  O         1 MOL       -1.0500 ****
909 Ob         23.815812   32.586087   38.530000  O         1 MOL       -1.0500 ****
910  H         25.495812   35.406087   40.160000  H         1 MOL        0.4250 ****
911 Al         20.885813   30.326087    0.000000 Al         1 MOL        1.5750 ****
912 Si         25.295813   32.066087   38.900000 Si         1 MOL        2.1000 ****
913 Si         25.185812   29.116087   38.890000 Si         1 MOL        2.1000 ****
914Omg         25.485813   31.896087   40.520000  O         1 MOL       -1.1808 ****
915Omg         25.035813   29.156087   40.520000  O         1 MOL       -1.1808 ****
916 Oh         22.475813   30.176087   40.590000  O         1 MOL       -0.9500 ****
917 Ob         23.795813   28.606087   38.280000  O         1 MOL       -1.0500 ****
918 Ob         25.495812   30.626087   38.290000  O         1 MOL       -1.0500 ****
919 Ob         26.355812   28.106087   38.530000  O         1 MOL       -1.0500 ****
920  H         22.875813   30.926087   40.160000  H         1 MOL        0.4250 ****
921 Al         28.605812   28.846087    0.000000 Al         1 MOL        1.5750 ****
922 Si         29.365813   27.106087    2.680000 Si         1 MOL        2.1000 ****
923 Si         29.465812   30.056087    2.690000 Si         1 MOL        2.1000 ****
924 Op         29.175812   27.276087    1.060000  O         1 MOL       -1.0500 ****
925 Op         29.625813   30.026087    1.060000  O         1 MOL       -1.0500 ****
926Ohmg         27.015813   28.996087    0.990000  O         1 MOL       -1.0809 ****
927 Ob         25.695813   30.576087    3.300000  O         1 MOL       -1.0500 ****
928 Ob         29.165813   28.556087    3.300000  O         1 MOL       -1.0500 ****
929 Ob         28.305813   31.076087    3.060000  O         1 MOL       -1.0500 ****
930  H         26.615813   28.246087    1.430000  H         1 MOL        0.4250 ****
931 Al         26.075812   33.326087    0.000000 Al         1 MOL        1.5750 ****
932 Si         26.825812   31.586087    2.680000 Si         1 MOL        2.1000 ****
933 Si         26.935813   34.536087    2.690000 Si         1 MOL        2.1000 ****
934Omg         26.635813   31.756087    1.060000  O         1 MOL       -1.1808 ****
935 Op         27.085812   34.506087    1.060000  O         1 MOL       -1.0500 ****
936 Oh         29.645812   33.476087    0.990000  O         1 MOL       -0.9500 ****
937 Ob         28.315812   35.056087    3.300000  O         1 MOL       -1.0500 ****
938 Ob         26.625813   33.036087    3.300000  O         1 MOL       -1.0500 ****
939 Ob         25.765813   35.556087    3.060000  O         1 MOL       -1.0500 ****
940  H         29.245812   32.736087    1.430000  H         1 MOL        0.4250 ****
941 Al         28.665813   34.816087    0.000000 Al         1 MOL        1.5750 ****
942 Si         27.825813   27.586087   38.900000 Si         1 MOL        2.1000 ****
943 Si         27.815812   33.606087   38.890000 Si         1 MOL        2.1000 ****
944 Op         28.025813   27.416087   40.520000  O         1 MOL       -1.0500 ****
945 Op         27.655812   33.636087   40.520000  O         1 MOL       -1.0500 ****
946 Oh         30.265813   34.666087   40.590000  O         1 MOL       -0.9500 ****
947 Ob          0.625812   33.086087   38.280000  O         1 MOL       -1.0500 ****
948 Ob         28.115813   35.106087   38.290000  O         1 MOL       -1.0500 ****
949 Ob         28.975812   32.586087   38.530000  O         1 MOL       -1.0500 ****
950  H         30.655813   35.406087   40.160000  H         1 MOL        0.4250 ****
951Mgo         26.045813   30.326087    0.000000 Mg         1 MOL        1.3600 ****
952 Si         30.455813   32.066087   38.900000 Si         1 MOL        2.1000 ****
953 Si         30.345813   29.116087   38.890000 Si         1 MOL        2.1000 ****
954 Op         30.645813   31.896087   40.520000  O         1 MOL       -1.0500 ****
955 Op         30.195812   29.156087   40.520000  O         1 MOL       -1.0500 ****
956Ohmg         27.635813   30.176087   40.590000  O         1 MOL       -1.0809 ****
957 Ob         28.955813   28.606087   38.280000  O         1 MOL       -1.0500 ****
958 Ob         30.655813   30.626087   38.290000  O         1 MOL       -1.0500 ****
959 Ob          0.555812   28.106087   38.530000  O         1 MOL       -1.0500 ****
960  H         28.035812   30.926087   40.160000  H         1 MOL        0.4250 ****
961 Al          4.289146    4.946087   20.790000 Al         1 MOL        1.5750 ****
962 Si          5.049146    3.206087   23.470000 Si         1 MOL        2.1000 ****
963 Si          5.149146    6.156087   23.480000 Si         1 MOL        2.1000 ****
964 Op          4.859146    3.376087   21.850000  O         1 MOL       -1.0500 ****
965Omg          5.299146    6.126087   21.850000  O         1 MOL       -1.1808 ****
966 Oh          2.699146    5.096087   21.780000  O         1 MOL       -0.9500 ****
967 Ob          1.379146    6.676087   24.090000  O         1 MOL       -1.0500 ****
968 Ob          4.849146    4.656087   24.090000  O         1 MOL       -1.0500 ****
969 Ob          3.979146    7.176087   23.850000  O         1 MOL       -1.0500 ****
970  H          2.299146    4.356087   22.220000  H         1 MOL        0.4250 ****
971 Al          1.749146    9.426087   20.790000 Al         1 MOL        1.5750 ****
972 Si          2.509146    7.696087   23.470000 Si         1 MOL        2.1000 ****
973 Si          2.609146   10.636087   23.480000 Si         1 MOL        2.1000 ****
974 Op          2.319146    7.866087   21.850000  O         1 MOL       -1.0500 ****
975 Op          2.769146   10.606087   21.850000  O         1 MOL       -1.0500 ****
976 Oh          5.319146    9.576087   21.780000  O         1 MOL       -0.9500 ****
977 Ob          3.999146   11.156087   24.090000  O         1 MOL       -1.0500 ****
978 Ob          2.309146    9.136087   24.090000  O         1 MOL       -1.0500 ****
979 Ob          1.449146   11.656087   23.850000  O         1 MOL       -1.0500 ****
980  H          4.919146    8.836087   22.220000  H         1 MOL        0.4250 ****
981 Al          4.349146   10.916087   20.790000 Al         1 MOL        1.5750 ****
982 Si          3.509146    3.686087   18.110000 Si         1 MOL        2.1000 ****
983 Si          3.489146    9.706087   18.100000 Si         1 MOL        2.1000 ****
984 Op          3.699146    3.516087   19.730000  O         1 MOL       -1.0500 ****
985 Op          3.339146    9.736087   19.730000  O         1 MOL       -1.0500 ****
986 Oh          5.939146   10.766087   19.800000  O         1 MOL       -0.9500 ****
987 Ob          7.259146    9.186087   17.490000  O         1 MOL       -1.0500 ****
988 Ob          3.799146   11.206087   17.500000  O         1 MOL       -1.0500 ****
989 Ob          4.659146    8.686087   17.740000  O         1 MOL       -1.0500 ****
990  H          6.339146   11.506087   19.370000  H         1 MOL        0.4250 ****
991 Al          1.729146    6.436087   20.790000 Al         1 MOL        1.5750 ****
992 Si          6.129146    8.166087   18.110000 Si         1 MOL        2.1000 ****
993 Si          6.029146    5.226087   18.100000 Si         1 MOL        2.1000 ****
994Omg          6.329146    7.996087   19.730000  O         1 MOL       -1.1808 ****
995Omg          5.879146    5.256087   19.730000  O         1 MOL       -1.1808 ****
996 Oh          3.319146    6.286087   19.800000  O         1 MOL       -0.9500 ****
997 Ob          4.639146    4.706087   17.490000  O         1 MOL       -1.0500 ****
998 Ob          6.329146    6.726087   17.500000  O         1 MOL       -1.0500 ****
999 Ob          7.189146    4.206087   17.740000  O         1 MOL       -1.0500 ****
1000  H          3.719146    7.026087   19.370000  H         1 MOL        0.4250 ****
1001 Al          9.449146    4.946087   20.790000 Al         1 MOL        1.5750 ****
1002 Si         10.209146    3.206087   23.470000 Si         1 MOL        2.1000 ****
1003 Si         10.309146    6.156087   23.480000 Si         1 MOL        2.1000 ****
1004 Op         10.019146    3.376087   21.850000  O         1 MOL       -1.0500 ****
1005 Op         10.459146    6.126087   21.850000  O         1 MOL       -1.0500 ****
1006Ohmg          7.859146    5.096087   21.780000  O         1 MOL       -1.0809 ****
1007 Ob          6.539146    6.676087   24.090000  O         1 MOL       -1.0500 ****
1008 Ob         10.009146    4.656087   24.090000  O         1 MOL       -1.0500 ****
1009 Ob          9.139146    7.176087   23.850000  O         1 MOL       -1.0500 ****
1010  H          7.459146    4.356087   22.220000  H         1 MOL        0.4250 ****
1011 Al          6.909146    9.426087   20.790000 Al         1 MOL        1.5750 ****
1012 Si          7.669146    7.696087   23.470000 Si         1 MOL        2.1000 ****
1013 Si          7.769146   10.636087   23.480000 Si         1 MOL        2.1000 ****
1014Omg          7.479146    7.866087   21.850000  O         1 MOL       -1.1808 ****
1015 Op          7.929146   10.606087   21.850000  O         1 MOL       -1.0500 ****
1016 Oh         10.479146    9.576087   21.780000  O         1 MOL       -0.9500 ****
1017 Ob          9.159146   11.156087   24.090000  O         1 MOL       -1.0500 ****
1018 Ob          7.469146    9.136087   24.090000  O         1 MOL       -1.0500 ****
1019 Ob          6.609146   11.656087   23.850000  O         1 MOL       -1.0500 ****
1020  H         10.079146    8.836087   22.220000  H         1 MOL        0.4250 ****
1021 Al          9.509146   10.916087   20.790000 Al         1 MOL        1.5750 ****
1022 Si          8.669146    3.686087   18.110000 Si         1 MOL        2.1000 ****
1023 Si          8.649146    9.706087   18.100000 Si         1 MOL        2.1000 ****
1024 Op          8.859146    3.516087   19.730000  O         1 MOL       -1.0500 ****
1025 Op          8.499146    9.736087   19.730000  O         1 MOL       -1.0500 ****
1026 Oh         11.099146   10.766087   19.800000  O         1 MOL       -0.9500 ****
1027 Ob         12.419146    9.186087   17.490000  O         1 MOL       -1.0500 ****
1028 Ob          8.959146   11.206087   17.500000  O         1 MOL       -1.0500 ****
1029 Ob          9.819146    8.686087   17.740000  O         1 MOL       -1.0500 ****
1030  H         11.499146   11.506087   19.370000  H         1 MOL        0.4250 ****
1031Mgo          6.889146    6.436087   20.790000 Mg         1 MOL        1.3600 ****
1032 Si         11.289146    8.166087   18.110000 Si         1 MOL        2.1000 ****
1033 Si         11.189146    5.226087   18.100000 Si         1 MOL        2.1000 ****
1034 Op         11.489146    7.996087   19.730000  O         1 MOL       -1.0500 ****
1035 Op         11.039146    5.256087   19.730000  O         1 MOL       -1.0500 ****
1036Ohmg          8.479146    6.286087   19.800000  O         1 MOL       -1.0809 ****
1037 Ob          9.799146    4.706087   17.490000  O         1 MOL       -1.0500 ****
1038 Ob         11.489146    6.726087   17.500000  O         1 MOL       -1.0500 ****
1039 Ob         12.349146    4.206087   17.740000  O         1 MOL       -1.0500 ****
1040  H          8.879146    7.026087   19.370000  H         1 MOL        0.4250 ****
1041 Al         14.609146    4.946087   20.790000 Al         1 MOL        1.5750 ****
1042 Si         15.369146    3.206087   23.470000 Si         1 MOL        2.1000 ****
1043 Si         15.469146    6.156087   23.480000 Si         1 MOL        2.1000 ****
1044 Op         15.179146    3.376087   21.850000  O         1 MOL       -1.0500 ****
1045 Op         15.619146    6.126087   21.850000  O         1 MOL       -1.0500 ****
1046 Oh         13.019146    5.096087   21.780000  O         1 MOL       -0.9500 ****
1047 Ob         11.699146    6.676087   24.090000  O         1 MOL       -1.0500 ****
1048 Ob         15.169146    4.656087   24.090000  O         1 MOL       -1.0500 ****
1049 Ob         14.299146    7.176087   23.850000  O         1 MOL       -1.0500 ****
1050  H         12.619146    4.356087   22.220000  H         1 MOL        0.4250 ****
1051 Al         12.069146    9.426087   20.790000 Al         1 MOL        1.5750 ****
1052 Si         12.829146    7.696087   23.470000 Si         1 MOL        2.1000 ****
1053 Si         12.929146   10.636087   23.480000 Si         1 MOL        2.1000 ****
1054 Op         12.639146    7.866087   21.850000  O         1 MOL       -1.0500 ****
1055 Op         13.089146   10.606087   21.850000  O         1 MOL       -1.0500 ****
1056Ohmg         15.639146    9.576087   21.780000  O         1 MOL       -1.0809 ****
1057 Ob         14.319146   11.156087   24.090000  O         1 MOL       -1.0500 ****
1058 Ob         12.629146    9.136087   24.090000  O         1 MOL       -1.0500 ****
1059 Ob         11.769146   11.656087   23.850000  O         1 MOL       -1.0500 ****
1060  H         15.239146    8.836087   22.220000  H         1 MOL        0.4250 ****
1061 Al         14.669146   10.916087   20.790000 Al         1 MOL        1.5750 ****
1062 Si         13.829146    3.686087   18.110000 Si         1 MOL        2.1000 ****
1063 Si         13.809146    9.706087   18.100000 Si         1 MOL        2.1000 ****
1064 Op         14.019146    3.516087   19.730000  O         1 MOL       -1.0500 ****
1065 Op         13.659146    9.736087   19.730000  O         1 MOL       -1.0500 ****
1066Ohmg         16.259146   10.766087   19.800000  O         1 MOL       -1.0809 ****
1067 Ob         17.579146    9.186087   17.490000  O         1 MOL       -1.0500 ****
1068 Ob         14.119146   11.206087   17.500000  O         1 MOL       -1.0500 ****
1069 Ob         14.979146    8.686087   17.740000  O         1 MOL       -1.0500 ****
1070  H         16.659146   11.506087   19.370000  H         1 MOL        0.4250 ****
1071 Al         12.049146    6.436087   20.790000 Al         1 MOL        1.5750 ****
1072 Si         16.449146    8.166087   18.110000 Si         1 MOL        2.1000 ****
1073 Si         16.349146    5.226087   18.100000 Si         1 MOL        2.1000 ****
1074Omg         16.649146    7.996087   19.730000  O         1 MOL       -1.1808 ****
1075 Op         16.199146    5.256087   19.730000  O         1 MOL       -1.0500 ****
1076 Oh         13.639146    6.286087   19.800000  O         1 MOL       -0.9500 ****
1077 Ob         14.959146    4.706087   17.490000  O         1 MOL       -1.0500 ****
1078 Ob         16.649146    6.726087   17.500000  O         1 MOL       -1.0500 ****
1079 Ob         17.509146    4.206087   17.740000  O         1 MOL       -1.0500 ****
1080  H         14.039146    7.026087   19.370000  H         1 MOL        0.4250 ****
1081 Al         19.769146    4.946087   20.790000 Al         1 MOL        1.5750 ****
1082 Si         20.529146    3.206087   23.470000 Si         1 MOL        2.1000 ****
1083 Si         20.629146    6.156087   23.480000 Si         1 MOL        2.1000 ****
1084 Op         20.339146    3.376087   21.850000  O         1 MOL       -1.0500 ****
1085 Op         20.779146    6.126087   21.850000  O         1 MOL       -1.0500 ****
1086 Oh         18.179146    5.096087   21.780000  O         1 MOL       -0.9500 ****
1087 Ob         16.859146    6.676087   24.090000  O         1 MOL       -1.0500 ****
1088 Ob         20.329146    4.656087   24.090000  O         1 MOL       -1.0500 ****
1089 Ob         19.459146    7.176087   23.850000  O         1 MOL       -1.0500 ****
1090  H         17.779146    4.356087   22.220000  H         1 MOL        0.4250 ****
1091Mgo         17.229146    9.426087   20.790000 Mg         1 MOL        1.3600 ****
1092 Si         17.989146    7.696087   23.470000 Si         1 MOL        2.1000 ****
1093 Si         18.089146   10.636087   23.480000 Si         1 MOL        2.1000 ****
1094Omg         17.799146    7.866087   21.850000  O         1 MOL       -1.1808 ****
1095Omg         18.249146   10.606087   21.850000  O         1 MOL       -1.1808 ****
1096 Oh         20.799146    9.576087   21.780000  O         1 MOL       -0.9500 ****
1097 Ob         19.479146   11.156087   24.090000  O         1 MOL       -1.0500 ****
1098 Ob         17.789146    9.136087   24.090000  O         1 MOL       -1.0500 ****
1099 Ob         16.929146   11.656087   23.850000  O         1 MOL       -1.0500 ****
1100  H         20.399146    8.836087   22.220000  H         1 MOL        0.4250 ****
1101 Al         19.829146   10.916087   20.790000 Al         1 MOL        1.5750 ****
1102 Si         18.989146    3.686087   18.110000 Si         1 MOL        2.1000 ****
1103 Si         18.969146    9.706087   18.100000 Si         1 MOL        2.1000 ****
1104 Op         19.179146    3.516087   19.730000  O         1 MOL       -1.0500 ****
1105Omg         18.819146    9.736087   19.730000  O         1 MOL       -1.1808 ****
1106 Oh         21.419146   10.766087   19.800000  O         1 MOL       -0.9500 ****
1107 Ob         22.739146    9.186087   17.490000  O         1 MOL       -1.0500 ****
1108 Ob         19.279146   11.206087   17.500000  O         1 MOL       -1.0500 ****
1109 Ob         20.139146    8.686087   17.740000  O         1 MOL       -1.0500 ****
1110  H         21.819146   11.506087   19.370000  H         1 MOL        0.4250 ****
1111 Al         17.209146    6.436087   20.790000 Al         1 MOL        1.5750 ****
1112 Si         21.609146    8.166087   18.110000 Si         1 MOL        2.1000 ****
1113 Si         21.509146    5.226087   18.100000 Si         1 MOL        2.1000 ****
1114 Op         21.809146    7.996087   19.730000  O         1 MOL       -1.0500 ****
1115 Op         21.359146    5.256087   19.730000  O         1 MOL       -1.0500 ****
1116 Oh         18.799146    6.286087   19.800000  O         1 MOL       -0.9500 ****
1117 Ob         20.119146    4.706087   17.490000  O         1 MOL       -1.0500 ****
1118 Ob         21.809146    6.726087   17.500000  O         1 MOL       -1.0500 ****
1119 Ob         22.669146    4.206087   17.740000  O         1 MOL       -1.0500 ****
1120  H         19.199146    7.026087   19.370000  H         1 MOL        0.4250 ****
1121 Al         24.929146    4.946087   20.790000 Al         1 MOL        1.5750 ****
1122 Si         25.689146    3.206087   23.470000 Si         1 MOL        2.1000 ****
1123 Si         25.789146    6.156087   23.480000 Si         1 MOL        2.1000 ****
1124 Op         25.499146    3.376087   21.850000  O         1 MOL       -1.0500 ****
1125 Op         25.939146    6.126087   21.850000  O         1 MOL       -1.0500 ****
1126 Oh         23.339146    5.096087   21.780000  O         1 MOL       -0.9500 ****
1127 Ob         22.019146    6.676087   24.090000  O         1 MOL       -1.0500 ****
1128 Ob         25.489146    4.656087   24.090000  O         1 MOL       -1.0500 ****
1129 Ob         24.619146    7.176087   23.850000  O         1 MOL       -1.0500 ****
1130  H         22.939146    4.356087   22.220000  H         1 MOL        0.4250 ****
1131 Al         22.389146    9.426087   20.790000 Al         1 MOL        1.5750 ****
1132 Si         23.149146    7.696087   23.470000 Si         1 MOL        2.1000 ****
1133 Si         23.249146   10.636087   23.480000 Si         1 MOL        2.1000 ****
1134 Op         22.959146    7.866087   21.850000  O         1 MOL       -1.0500 ****
1135Omg         23.409146   10.606087   21.850000  O         1 MOL       -1.1808 ****
1136Ohmg         25.959146    9.576087   21.780000  O         1 MOL       -1.0809 ****
1137 Ob         24.639146   11.156087   24.090000  O         1 MOL       -1.0500 ****
1138 Ob         22.949146    9.136087   24.090000  O         1 MOL       -1.0500 ****
1139 Ob         22.089146   11.656087   23.850000  O         1 MOL       -1.0500 ****
1140  H         25.559146    8.836087   22.220000  H         1 MOL        0.4250 ****
1141Mgo         24.989146   10.916087   20.790000 Mg         1 MOL        1.3600 ****
1142 Si         24.149146    3.686087   18.110000 Si         1 MOL        2.1000 ****
1143 Si         24.129146    9.706087   18.100000 Si         1 MOL        2.1000 ****
1144 Op         24.339146    3.516087   19.730000  O         1 MOL       -1.0500 ****
1145Omg         23.979146    9.736087   19.730000  O         1 MOL       -1.1808 ****
1146Ohmg         26.579146   10.766087   19.800000  O         1 MOL       -1.0809 ****
1147 Ob         27.899146    9.186087   17.490000  O         1 MOL       -1.0500 ****
1148 Ob         24.439146   11.206087   17.500000  O         1 MOL       -1.0500 ****
1149 Ob         25.299146    8.686087   17.740000  O         1 MOL       -1.0500 ****
1150  H         26.979146   11.506087   19.370000  H         1 MOL        0.4250 ****
1151 Al         22.369146    6.436087   20.790000 Al         1 MOL        1.5750 ****
1152 Si         26.769146    8.166087   18.110000 Si         1 MOL        2.1000 ****
1153 Si         26.669146    5.226087   18.100000 Si         1 MOL        2.1000 ****
1154 Op         26.969146    7.996087   19.730000  O         1 MOL       -1.0500 ****
1155 Op         26.519146    5.256087   19.730000  O         1 MOL       -1.0500 ****
1156 Oh         23.959146    6.286087   19.800000  O         1 MOL       -0.9500 ****
1157 Ob         25.279146    4.706087   17.490000  O         1 MOL       -1.0500 ****
1158 Ob         26.969146    6.726087   17.500000  O         1 MOL       -1.0500 ****
1159 Ob         27.829146    4.206087   17.740000  O         1 MOL       -1.0500 ****
1160  H         24.359146    7.026087   19.370000  H         1 MOL        0.4250 ****
1161Mgo         30.089146    4.946087   20.790000 Mg         1 MOL        1.3600 ****
1162 Si         30.849146    3.206087   23.470000 Si         1 MOL        2.1000 ****
1163 Si         30.949146    6.156087   23.480000 Si         1 MOL        2.1000 ****
1164Omg         30.659146    3.376087   21.850000  O         1 MOL       -1.1808 ****
1165Omg          0.139146    6.126087   21.850000  O         1 MOL       -1.1808 ****
1166Ohmg         28.499146    5.096087   21.780000  O         1 MOL       -1.0809 ****
1167 Ob         27.179146    6.676087   24.090000  O         1 MOL       -1.0500 ****
1168 Ob         30.649146    4.656087   24.090000  O         1 MOL       -1.0500 ****
1169 Ob         29.779146    7.176087   23.850000  O         1 MOL       -1.0500 ****
1170  H         28.099146    4.356087   22.220000  H         1 MOL        0.4250 ****
1171 Al         27.549146    9.426087   20.790000 Al         1 MOL        1.5750 ****
1172 Si         28.309146    7.696087   23.470000 Si         1 MOL        2.1000 ****
1173 Si         28.409146   10.636087   23.480000 Si         1 MOL        2.1000 ****
1174 Op         28.119146    7.866087   21.850000  O         1 MOL       -1.0500 ****
1175 Op         28.569146   10.606087   21.850000  O         1 MOL       -1.0500 ****
1176 Oh          0.159146    9.576087   21.780000  O         1 MOL       -0.9500 ****
1177 Ob         29.799146   11.156087   24.090000  O         1 MOL       -1.0500 ****
1178 Ob         28.109146    9.136087   24.090000  O         1 MOL       -1.0500 ****
1179 Ob         27.249146   11.656087   23.850000  O         1 MOL       -1.0500 ****
1180  H         30.719146    8.836087   22.220000  H         1 MOL        0.4250 ****
1181 Al         30.149146   10.916087   20.790000 Al         1 MOL        1.5750 ****
1182 Si         29.309146    3.686087   18.110000 Si         1 MOL        2.1000 ****
1183 Si         29.289146    9.706087   18.100000 Si         1 MOL        2.1000 ****
1184Omg         29.499146    3.516087   19.730000  O         1 MOL       -1.1808 ****
1185 Op         29.139146    9.736087   19.730000  O         1 MOL       -1.0500 ****
1186 Oh          0.779146   10.766087   19.800000  O         1 MOL       -0.9500 ****
1187 Ob          2.099146    9.186087   17.490000  O         1 MOL       -1.0500 ****
1188 Ob         29.599146   11.206087   17.500000  O         1 MOL       -1.0500 ****
1189 Ob         30.459146    8.686087   17.740000  O         1 MOL       -1.0500 ****
1190  H          1.179146   11.506087   19.370000  H         1 MOL        0.4250 ****
1191 Al         27.529146    6.436087   20.790000 Al         1 MOL        1.5750 ****
1192 Si          0.969146    8.166087   18.110000 Si         1 MOL        2.1000 ****
1193 Si          0.869146    5.226087   18.100000 Si         1 MOL        2.1000 ****
1194 Op          1.169146    7.996087   19.730000  O         1 MOL       -1.0500 ****
1195Omg          0.719146    5.256087   19.730000  O         1 MOL       -1.1808 ****
1196Ohmg         29.119146    6.286087   19.800000  O         1 MOL       -1.0809 ****
1197 Ob         30.439146    4.706087   17.490000  O         1 MOL       -1.0500 ****
1198 Ob          1.169146    6.726087   17.500000  O         1 MOL       -1.0500 ****
1199 Ob          2.029146    4.206087   17.740000  O         1 MOL       -1.0500 ****
1200  H         29.519146    7.026087   19.370000  H         1 MOL        0.4250 ****
1201 Al          4.369146   13.916087   20.790000 Al         1 MOL        1.5750 ****
1202 Si          5.129146   12.176087   23.470000 Si         1 MOL        2.1000 ****
1203 Si          5.229146   15.126087   23.480000 Si         1 MOL        2.1000 ****
1204 Op          4.939146   12.346087   21.850000  O         1 MOL       -1.0500 ****
1205 Op          5.389146   15.086087   21.850000  O         1 MOL       -1.0500 ****
1206 Oh          2.779146   14.066087   21.780000  O         1 MOL       -0.9500 ****
1207 Ob          1.459146   15.646087   24.090000  O         1 MOL       -1.0500 ****
1208 Ob          4.929146   13.626087   24.090000  O         1 MOL       -1.0500 ****
1209 Ob          4.069146   16.136087   23.850000  O         1 MOL       -1.0500 ****
1210  H          2.379146   13.316087   22.220000  H         1 MOL        0.4250 ****
1211Mgo          1.839146   18.396087   20.790000 Mg         1 MOL        1.3600 ****
1212 Si          2.589146   16.656087   23.470000 Si         1 MOL        2.1000 ****
1213 Si          2.699146   19.606087   23.480000 Si         1 MOL        2.1000 ****
1214Omg          2.399146   16.826087   21.850000  O         1 MOL       -1.1808 ****
1215Omg          2.849146   19.576087   21.850000  O         1 MOL       -1.1808 ****
1216 Oh          5.409146   18.546087   21.780000  O         1 MOL       -0.9500 ****
1217 Ob          4.089146   20.126087   24.090000  O         1 MOL       -1.0500 ****
1218 Ob          2.389146   18.106087   24.090000  O         1 MOL       -1.0500 ****
1219 Ob          1.529146   20.626087   23.850000  O         1 MOL       -1.0500 ****
1220  H          5.009146   17.796087   22.220000  H         1 MOL        0.4250 ****
1221 Al          4.439146   19.886087   20.790000 Al         1 MOL        1.5750 ****
1222 Si          3.589146   12.656087   18.110000 Si         1 MOL        2.1000 ****
1223 Si          3.579146   18.676087   18.100000 Si         1 MOL        2.1000 ****
1224 Op          3.789146   12.486087   19.730000  O         1 MOL       -1.0500 ****
1225Omg          3.419146   18.706087   19.730000  O         1 MOL       -1.1808 ****
1226 Oh          6.029146   19.726087   19.800000  O         1 MOL       -0.9500 ****
1227 Ob          7.349146   18.156087   17.490000  O         1 MOL       -1.0500 ****
1228 Ob          3.879146   20.176087   17.500000  O         1 MOL       -1.0500 ****
1229 Ob          4.739146   17.656087   17.740000  O         1 MOL       -1.0500 ****
1230  H          6.429146   20.476087   19.370000  H         1 MOL        0.4250 ****
1231 Al          1.809146   15.396087   20.790000 Al         1 MOL        1.5750 ****
1232 Si          6.219146   17.136087   18.110000 Si         1 MOL        2.1000 ****
1233 Si          6.109146   14.186087   18.100000 Si         1 MOL        2.1000 ****
1234 Op          6.409146   16.966087   19.730000  O         1 MOL       -1.0500 ****
1235 Op          5.959146   14.216087   19.730000  O         1 MOL       -1.0500 ****
1236 Oh          3.399146   15.246087   19.800000  O         1 MOL       -0.9500 ****
1237 Ob          4.719146   13.666087   17.490000  O         1 MOL       -1.0500 ****
1238 Ob          6.419146   15.686087   17.500000  O         1 MOL       -1.0500 ****
1239 Ob          7.279146   13.166087   17.740000  O         1 MOL       -1.0500 ****
1240  H          3.799146   15.996087   19.370000  H         1 MOL        0.4250 ****
1241Mgo          9.529146   13.916087   20.790000 Mg         1 MOL        1.3600 ****
1242 Si         10.289146   12.176087   23.470000 Si         1 MOL        2.1000 ****
1243 Si         10.389146   15.126087   23.480000 Si         1 MOL        2.1000 ****
1244Omg         10.099146   12.346087   21.850000  O         1 MOL       -1.1808 ****
1245Omg         10.549146   15.086087   21.850000  O         1 MOL       -1.1808 ****
1246Ohmg          7.939146   14.066087   21.780000  O         1 MOL       -1.0809 ****
1247 Ob          6.619146   15.646087   24.090000  O         1 MOL       -1.0500 ****
1248 Ob         10.089146   13.626087   24.090000  O         1 MOL       -1.0500 ****
1249 Ob          9.229146   16.136087   23.850000  O         1 MOL       -1.0500 ****
1250  H          7.539146   13.316087   22.220000  H         1 MOL        0.4250 ****
1251 Al          6.999146   18.396087   20.790000 Al         1 MOL        1.5750 ****
1252 Si          7.749146   16.656087   23.470000 Si         1 MOL        2.1000 ****
1253 Si          7.859146   19.606087   23.480000 Si         1 MOL        2.1000 ****
1254 Op          7.559146   16.826087   21.850000  O         1 MOL       -1.0500 ****
1255 Op          8.009146   19.576087   21.850000  O         1 MOL       -1.0500 ****
1256 Oh         10.569146   18.546087   21.780000  O         1 MOL       -0.9500 ****
1257 Ob          9.249146   20.126087   24.090000  O         1 MOL       -1.0500 ****
1258 Ob          7.549146   18.106087   24.090000  O         1 MOL       -1.0500 ****
1259 Ob          6.689146   20.626087   23.850000  O         1 MOL       -1.0500 ****
1260  H         10.169146   17.796087   22.220000  H         1 MOL        0.4250 ****
1261 Al          9.599146   19.886087   20.790000 Al         1 MOL        1.5750 ****
1262 Si          8.749146   12.656087   18.110000 Si         1 MOL        2.1000 ****
1263 Si          8.739146   18.676087   18.100000 Si         1 MOL        2.1000 ****
1264Omg          8.949146   12.486087   19.730000  O         1 MOL       -1.1808 ****
1265 Op          8.579146   18.706087   19.730000  O         1 MOL       -1.0500 ****
1266 Oh         11.189146   19.726087   19.800000  O         1 MOL       -0.9500 ****
1267 Ob         12.509146   18.156087   17.490000  O         1 MOL       -1.0500 ****
1268 Ob          9.039146   20.176087   17.500000  O         1 MOL       -1.0500 ****
1269 Ob          9.899146   17.656087   17.740000  O         1 MOL       -1.0500 ****
1270  H         11.589146   20.476087   19.370000  H         1 MOL        0.4250 ****
1271 Al          6.969146   15.396087   20.790000 Al         1 MOL        1.5750 ****
1272 Si         11.379146   17.136087   18.110000 Si         1 MOL        2.1000 ****
1273 Si         11.269146   14.186087   18.100000 Si         1 MOL        2.1000 ****
1274 Op         11.569146   16.966087   19.730000  O         1 MOL       -1.0500 ****
1275Omg         11.119146   14.216087   19.730000  O         1 MOL       -1.1808 ****
1276Ohmg          8.559146   15.246087   19.800000  O         1 MOL       -1.0809 ****
1277 Ob          9.879146   13.666087   17.490000  O         1 MOL       -1.0500 ****
1278 Ob         11.579146   15.686087   17.500000  O         1 MOL       -1.0500 ****
1279 Ob         12.439146   13.166087   17.740000  O         1 MOL       -1.0500 ****
1280  H          8.959146   15.996087   19.370000  H         1 MOL        0.4250 ****
1281 Al         14.689146   13.916087   20.790000 Al         1 MOL        1.5750 ****
1282 Si         15.449146   12.176087   23.470000 Si         1 MOL        2.1000 ****
1283 Si         15.549146   15.126087   23.480000 Si         1 MOL        2.1000 ****
1284 Op         15.259146   12.346087   21.850000  O         1 MOL       -1.0500 ****
1285Omg         15.709146   15.086087   21.850000  O         1 MOL       -1.1808 ****
1286 Oh         13.099146   14.066087   21.780000  O         1 MOL       -0.9500 ****
1287 Ob         11.779146   15.646087   24.090000  O         1 MOL       -1.0500 ****
1288 Ob         15.249146   13.626087   24.090000  O         1 MOL       -1.0500 ****
1289 Ob         14.389146   16.136087   23.850000  O         1 MOL       -1.0500 ****
1290  H         12.699146   13.316087   22.220000  H         1 MOL        0.4250 ****
1291 Al         12.159146   18.396087   20.790000 Al         1 MOL        1.5750 ****
1292 Si         12.909146   16.656087   23.470000 Si         1 MOL        2.1000 ****
1293 Si         13.019146   19.606087   23.480000 Si         1 MOL        2.1000 ****
1294 Op         12.719146   16.826087   21.850000  O         1 MOL       -1.0500 ****
1295 Op         13.169146   19.576087   21.850000  O         1 MOL       -1.0500 ****
1296 Oh         15.729146   18.546087   21.780000  O         1 MOL       -0.9500 ****
1297 Ob         14.409146   20.126087   24.090000  O         1 MOL       -1.0500 ****
1298 Ob         12.709146   18.106087   24.090000  O         1 MOL       -1.0500 ****
1299 Ob         11.849146   20.626087   23.850000  O         1 MOL       -1.0500 ****
1300  H         15.329146   17.796087   22.220000  H         1 MOL        0.4250 ****
1301 Al         14.759146   19.886087   20.790000 Al         1 MOL        1.5750 ****
1302 Si         13.909146   12.656087   18.110000 Si         1 MOL        2.1000 ****
1303 Si         13.899146   18.676087   18.100000 Si         1 MOL        2.1000 ****
1304 Op         14.109146   12.486087   19.730000  O         1 MOL       -1.0500 ****
1305 Op         13.739146   18.706087   19.730000  O         1 MOL       -1.0500 ****
1306 Oh         16.349146   19.726087   19.800000  O         1 MOL       -0.9500 ****
1307 Ob         17.669146   18.156087   17.490000  O         1 MOL       -1.0500 ****
1308 Ob         14.199146   20.176087   17.500000  O         1 MOL       -1.0500 ****
1309 Ob         15.059146   17.656087   17.740000  O         1 MOL       -1.0500 ****
1310  H         16.749146   20.476087   19.370000  H         1 MOL        0.4250 ****
1311 Al         12.129146   15.396087   20.790000 Al         1 MOL        1.5750 ****
1312 Si         16.539146   17.136087   18.110000 Si         1 MOL        2.1000 ****
1313 Si         16.429146   14.186087   18.100000 Si         1 MOL        2.1000 ****
1314Omg         16.729146   16.966087   19.730000  O         1 MOL       -1.1808 ****
1315Omg         16.279146   14.216087   19.730000  O         1 MOL       -1.1808 ****
1316 Oh         13.719146   15.246087   19.800000  O         1 MOL       -0.9500 ****
1317 Ob         15.039146   13.666087   17.490000  O         1 MOL       -1.0500 ****
1318 Ob         16.739146   15.686087   17.500000  O         1 MOL       -1.0500 ****
1319 Ob         17.599146   13.166087   17.740000  O         1 MOL       -1.0500 ****
1320  H         14.119146   15.996087   19.370000  H         1 MOL        0.4250 ****
1321 Al         19.849146   13.916087   20.790000 Al         1 MOL        1.5750 ****
1322 Si         20.609146   12.176087   23.470000 Si         1 MOL        2.1000 ****
1323 Si         20.709146   15.126087   23.480000 Si         1 MOL        2.1000 ****
1324 Op         20.419146   12.346087   21.850000  O         1 MOL       -1.0500 ****
1325 Op         20.869146   15.086087   21.850000  O         1 MOL       -1.0500 ****
1326Ohmg         18.259146   14.066087   21.780000  O         1 MOL       -1.0809 ****
1327 Ob         16.939146   15.646087   24.090000  O         1 MOL       -1.0500 ****
1328 Ob         20.409146   13.626087   24.090000  O         1 MOL       -1.0500 ****
1329 Ob         19.549146   16.136087   23.850000  O         1 MOL       -1.0500 ****
1330  H         17.859146   13.316087   22.220000  H         1 MOL        0.4250 ****
1331 Al         17.319146   18.396087   20.790000 Al         1 MOL        1.5750 ****
1332 Si         18.069146   16.656087   23.470000 Si         1 MOL        2.1000 ****
1333 Si         18.179146   19.606087   23.480000 Si         1 MOL        2.1000 ****
1334Omg         17.879146   16.826087   21.850000  O         1 MOL       -1.1808 ****
1335 Op         18.329146   19.576087   21.850000  O         1 MOL       -1.0500 ****
1336 Oh         20.889146   18.546087   21.780000  O         1 MOL       -0.9500 ****
1337 Ob         19.569146   20.126087   24.090000  O         1 MOL       -1.0500 ****
1338 Ob         17.869146   18.106087   24.090000  O         1 MOL       -1.0500 ****
1339 Ob         17.009146   20.626087   23.850000  O         1 MOL       -1.0500 ****
1340  H         20.489146   17.796087   22.220000  H         1 MOL        0.4250 ****
1341 Al         19.919146   19.886087   20.790000 Al         1 MOL        1.5750 ****
1342 Si         19.069146   12.656087   18.110000 Si         1 MOL        2.1000 ****
1343 Si         19.059146   18.676087   18.100000 Si         1 MOL        2.1000 ****
1344 Op         19.269146   12.486087   19.730000  O         1 MOL       -1.0500 ****
1345 Op         18.899146   18.706087   19.730000  O         1 MOL       -1.0500 ****
1346 Oh         21.509146   19.726087   19.800000  O         1 MOL       -0.9500 ****
1347 Ob         22.829146   18.156087   17.490000  O         1 MOL       -1.0500 ****
1348 Ob         19.359146   20.176087   17.500000  O         1 MOL       -1.0500 ****
1349 Ob         20.219146   17.656087   17.740000  O         1 MOL       -1.0500 ****
1350  H         21.909146   20.476087   19.370000  H         1 MOL        0.4250 ****
1351Mgo         17.289146   15.396087   20.790000 Mg         1 MOL        1.3600 ****
1352 Si         21.699146   17.136087   18.110000 Si         1 MOL        2.1000 ****
1353 Si         21.589146   14.186087   18.100000 Si         1 MOL        2.1000 ****
1354 Op         21.889146   16.966087   19.730000  O         1 MOL       -1.0500 ****
1355 Op         21.439146   14.216087   19.730000  O         1 MOL       -1.0500 ****
1356Ohmg         18.879146   15.246087   19.800000  O         1 MOL       -1.0809 ****
1357 Ob         20.199146   13.666087   17.490000  O         1 MOL       -1.0500 ****
1358 Ob         21.899146   15.686087   17.500000  O         1 MOL       -1.0500 ****
1359 Ob         22.759146   13.166087   17.740000  O         1 MOL       -1.0500 ****
1360  H         19.279146   15.996087   19.370000  H         1 MOL        0.4250 ****
1361 Al         25.009146   13.916087   20.790000 Al         1 MOL        1.5750 ****
1362 Si         25.769146   12.176087   23.470000 Si         1 MOL        2.1000 ****
1363 Si         25.869146   15.126087   23.480000 Si         1 MOL        2.1000 ****
1364Omg         25.579146   12.346087   21.850000  O         1 MOL       -1.1808 ****
1365 Op         26.029146   15.086087   21.850000  O         1 MOL       -1.0500 ****
1366 Oh         23.419146   14.066087   21.780000  O         1 MOL       -0.9500 ****
1367 Ob         22.099146   15.646087   24.090000  O         1 MOL       -1.0500 ****
1368 Ob         25.569146   13.626087   24.090000  O         1 MOL       -1.0500 ****
1369 Ob         24.709146   16.136087   23.850000  O         1 MOL       -1.0500 ****
1370  H         23.019146   13.316087   22.220000  H         1 MOL        0.4250 ****
1371 Al         22.479146   18.396087   20.790000 Al         1 MOL        1.5750 ****
1372 Si         23.229146   16.656087   23.470000 Si         1 MOL        2.1000 ****
1373 Si         23.339146   19.606087   23.480000 Si         1 MOL        2.1000 ****
1374 Op         23.039146   16.826087   21.850000  O         1 MOL       -1.0500 ****
1375 Op         23.489146   19.576087   21.850000  O         1 MOL       -1.0500 ****
1376 Oh         26.049146   18.546087   21.780000  O         1 MOL       -0.9500 ****
1377 Ob         24.729146   20.126087   24.090000  O         1 MOL       -1.0500 ****
1378 Ob         23.029146   18.106087   24.090000  O         1 MOL       -1.0500 ****
1379 Ob         22.169146   20.626087   23.850000  O         1 MOL       -1.0500 ****
1380  H         25.649146   17.796087   22.220000  H         1 MOL        0.4250 ****
1381 Al         25.079146   19.886087   20.790000 Al         1 MOL        1.5750 ****
1382 Si         24.229146   12.656087   18.110000 Si         1 MOL        2.1000 ****
1383 Si         24.219146   18.676087   18.100000 Si         1 MOL        2.1000 ****
1384Omg         24.429146   12.486087   19.730000  O         1 MOL       -1.1808 ****
1385 Op         24.059146   18.706087   19.730000  O         1 MOL       -1.0500 ****
1386 Oh         26.669146   19.726087   19.800000  O         1 MOL       -0.9500 ****
1387 Ob         27.989146   18.156087   17.490000  O         1 MOL       -1.0500 ****
1388 Ob         24.519146   20.176087   17.500000  O         1 MOL       -1.0500 ****
1389 Ob         25.379146   17.656087   17.740000  O         1 MOL       -1.0500 ****
1390  H         27.069146   20.476087   19.370000  H         1 MOL        0.4250 ****
1391 Al         22.449146   15.396087   20.790000 Al         1 MOL        1.5750 ****
1392 Si         26.859146   17.136087   18.110000 Si         1 MOL        2.1000 ****
1393 Si         26.749146   14.186087   18.100000 Si         1 MOL        2.1000 ****
1394 Op         27.049146   16.966087   19.730000  O         1 MOL       -1.0500 ****
1395 Op         26.599146   14.216087   19.730000  O         1 MOL       -1.0500 ****
1396 Oh         24.039146   15.246087   19.800000  O         1 MOL       -0.9500 ****
1397 Ob         25.359146   13.666087   17.490000  O         1 MOL       -1.0500 ****
1398 Ob         27.059146   15.686087   17.500000  O         1 MOL       -1.0500 ****
1399 Ob         27.919146   13.166087   17.740000  O         1 MOL       -1.0500 ****
1400  H         24.439146   15.996087   19.370000  H         1 MOL        0.4250 ****
1401 Al         30.169146   13.916087   20.790000 Al         1 MOL        1.5750 ****
1402 Si         30.929146   12.176087   23.470000 Si         1 MOL        2.1000 ****
1403 Si          0.069146   15.126087   23.480000 Si         1 MOL        2.1000 ****
1404 Op         30.739146   12.346087   21.850000  O         1 MOL       -1.0500 ****
1405 Op          0.229146   15.086087   21.850000  O         1 MOL       -1.0500 ****
1406 Oh         28.579146   14.066087   21.780000  O         1 MOL       -0.9500 ****
1407 Ob         27.259146   15.646087   24.090000  O         1 MOL       -1.0500 ****
1408 Ob         30.729146   13.626087   24.090000  O         1 MOL       -1.0500 ****
1409 Ob         29.869146   16.136087   23.850000  O         1 MOL       -1.0500 ****
1410  H         28.179146   13.316087   22.220000  H         1 MOL        0.4250 ****
1411 Al         27.639146   18.396087   20.790000 Al         1 MOL        1.5750 ****
1412 Si         28.389146   16.656087   23.470000 Si         1 MOL        2.1000 ****
1413 Si         28.499146   19.606087   23.480000 Si         1 MOL        2.1000 ****
1414 Op         28.199146   16.826087   21.850000  O         1 MOL       -1.0500 ****
1415 Op         28.649146   19.576087   21.850000  O         1 MOL       -1.0500 ****
1416Ohmg          0.249146   18.546087   21.780000  O         1 MOL       -1.0809 ****
1417 Ob         29.889146   20.126087   24.090000  O         1 MOL       -1.0500 ****
1418 Ob         28.189146   18.106087   24.090000  O         1 MOL       -1.0500 ****
1419 Ob         27.329146   20.626087   23.850000  O         1 MOL       -1.0500 ****
1420  H         30.809146   17.796087   22.220000  H         1 MOL        0.4250 ****
1421 Al         30.239146   19.886087   20.790000 Al         1 MOL        1.5750 ****
1422 Si         29.389146   12.656087   18.110000 Si         1 MOL        2.1000 ****
1423 Si         29.379146   18.676087   18.100000 Si         1 MOL        2.1000 ****
1424 Op         29.589146   12.486087   19.730000  O         1 MOL       -1.0500 ****
1425 Op         29.219146   18.706087   19.730000  O         1 MOL       -1.0500 ****
1426Ohmg          0.869146   19.726087   19.800000  O         1 MOL       -1.0809 ****
1427 Ob          2.189146   18.156087   17.490000  O         1 MOL       -1.0500 ****
1428 Ob         29.679146   20.176087   17.500000  O         1 MOL       -1.0500 ****
1429 Ob         30.539146   17.656087   17.740000  O         1 MOL       -1.0500 ****
1430  H          1.269146   20.476087   19.370000  H         1 MOL        0.4250 ****
1431 Al         27.609146   15.396087   20.790000 Al         1 MOL        1.5750 ****
1432 Si          1.059146   17.136087   18.110000 Si         1 MOL        2.1000 ****
1433 Si          0.949146   14.186087   18.100000 Si         1 MOL        2.1000 ****
1434Omg          1.249146   16.966087   19.730000  O         1 MOL       -1.1808 ****
1435 Op          0.799146   14.216087   19.730000  O         1 MOL       -1.0500 ****
1436 Oh         29.199146   15.246087   19.800000  O         1 MOL       -0.9500 ****
1437 Ob         30.519146   13.666087   17.490000  O         1 MOL       -1.0500 ****
1438 Ob          1.259146   15.686087   17.500000  O         1 MOL       -1.0500 ****
1439 Ob          2.119146   13.166087   17.740000  O         1 MOL       -1.0500 ****
1440  H         29.599146   15.996087   19.370000  H         1 MOL        0.4250 ****
1441 Al          4.459146   22.876087   20.790000 Al         1 MOL        1.5750 ****
1442 Si          5.219146   21.136087   23.470000 Si         1 MOL        2.1000 ****
1443 Si          5.319146   24.086087   23.480000 Si         1 MOL        2.1000 ****
1444 Op          5.019146   21.316087   21.850000  O         1 MOL       -1.0500 ****
1445 Op          5.469146   24.056087   21.850000  O         1 MOL       -1.0500 ****
1446Ohmg          2.869146   23.026087   21.780000  O         1 MOL       -1.0809 ****
1447 Ob          1.549146   24.606087   24.090000  O         1 MOL       -1.0500 ****
1448 Ob          5.009146   22.586087   24.090000  O         1 MOL       -1.0500 ****
1449 Ob          4.149146   25.106087   23.850000  O         1 MOL       -1.0500 ****
1450  H          2.469146   22.286087   22.220000  H         1 MOL        0.4250 ****
1451 Al          1.919146   27.356087   20.790000 Al         1 MOL        1.5750 ****
1452 Si          2.679146   25.626087   23.470000 Si         1 MOL        2.1000 ****
1453 Si          2.779146   28.576087   23.480000 Si         1 MOL        2.1000 ****
1454Omg          2.489146   25.796087   21.850000  O         1 MOL       -1.1808 ****
1455 Op          2.929146   28.536087   21.850000  O         1 MOL       -1.0500 ****
1456 Oh          5.489146   27.516087   21.780000  O         1 MOL       -0.9500 ****
1457 Ob          4.169146   29.086087   24.090000  O         1 MOL       -1.0500 ****
1458 Ob          2.479146   27.066087   24.090000  O         1 MOL       -1.0500 ****
1459 Ob          1.619146   29.586087   23.850000  O         1 MOL       -1.0500 ****
1460  H          5.089146   26.766087   22.220000  H         1 MOL        0.4250 ****
1461 Al          4.519146   28.846087   20.790000 Al         1 MOL        1.5750 ****
1462 Si          3.679146   21.616087   18.110000 Si         1 MOL        2.1000 ****
1463 Si          3.659146   27.636087   18.100000 Si         1 MOL        2.1000 ****
1464 Op          3.869146   21.446087   19.730000  O         1 MOL       -1.0500 ****
1465 Op          3.509146   27.666087   19.730000  O         1 MOL       -1.0500 ****
1466 Oh          6.109146   28.696087   19.800000  O         1 MOL       -0.9500 ****
1467 Ob          7.429146   27.116087   17.490000  O         1 MOL       -1.0500 ****
1468 Ob          3.959146   29.136087   17.500000  O         1 MOL       -1.0500 ****
1469 Ob          4.819146   26.616087   17.740000  O         1 MOL       -1.0500 ****
1470  H          6.509146   29.446087   19.370000  H         1 MOL        0.4250 ****
1471Mgo          1.899146   24.366087   20.790000 Mg         1 MOL        1.3600 ****
1472 Si          6.299146   26.106087   18.110000 Si         1 MOL        2.1000 ****
1473 Si          6.199146   23.156087   18.100000 Si         1 MOL        2.1000 ****
1474 Op          6.489146   25.926087   19.730000  O         1 MOL       -1.0500 ****
1475 Op          6.049146   23.186087   19.730000  O         1 MOL       -1.0500 ****
1476Ohmg          3.489146   24.216087   19.800000  O         1 MOL       -1.0809 ****
1477 Ob          4.809146   22.636087   17.490000  O         1 MOL       -1.0500 ****
1478 Ob          6.499146   24.656087   17.500000  O         1 MOL       -1.0500 ****
1479 Ob          7.359146   22.136087   17.740000  O         1 MOL       -1.0500 ****
1480  H          3.889146   24.956087   19.370000  H         1 MOL        0.4250 ****
1481 Al          9.619146   22.876087   20.790000 Al         1 MOL        1.5750 ****
1482 Si         10.379146   21.136087   23.470000 Si         1 MOL        2.1000 ****
1483 Si         10.479146   24.086087   23.480000 Si         1 MOL        2.1000 ****
1484 Op         10.179146   21.316087   21.850000  O         1 MOL       -1.0500 ****
1485Omg         10.629146   24.056087   21.850000  O         1 MOL       -1.1808 ****
1486 Oh          8.029146   23.026087   21.780000  O         1 MOL       -0.9500 ****
1487 Ob          6.709146   24.606087   24.090000  O         1 MOL       -1.0500 ****
1488 Ob         10.169146   22.586087   24.090000  O         1 MOL       -1.0500 ****
1489 Ob          9.309146   25.106087   23.850000  O         1 MOL       -1.0500 ****
1490  H          7.629146   22.286087   22.220000  H         1 MOL        0.4250 ****
1491 Al          7.079146   27.356087   20.790000 Al         1 MOL        1.5750 ****
1492 Si          7.839146   25.626087   23.470000 Si         1 MOL        2.1000 ****
1493 Si          7.939146   28.576087   23.480000 Si         1 MOL        2.1000 ****
1494 Op          7.649146   25.796087   21.850000  O         1 MOL       -1.0500 ****
1495 Op          8.089146   28.536087   21.850000  O         1 MOL       -1.0500 ****
1496 Oh         10.649146   27.516087   21.780000  O         1 MOL       -0.9500 ****
1497 Ob          9.329146   29.086087   24.090000  O         1 MOL       -1.0500 ****
1498 Ob          7.639146   27.066087   24.090000  O         1 MOL       -1.0500 ****
1499 Ob          6.779146   29.586087   23.850000  O         1 MOL       -1.0500 ****
1500  H         10.249146   26.766087   22.220000  H         1 MOL        0.4250 ****
1501 Al          9.679146   28.846087   20.790000 Al         1 MOL        1.5750 ****
1502 Si          8.839146   21.616087   18.110000 Si         1 MOL        2.1000 ****
1503 Si          8.819146   27.636087   18.100000 Si         1 MOL        2.1000 ****
1504 Op          9.029146   21.446087   19.730000  O         1 MOL       -1.0500 ****
1505 Op          8.669146   27.666087   19.730000  O         1 MOL       -1.0500 ****
1506 Oh         11.269146   28.696087   19.800000  O         1 MOL       -0.9500 ****
1507 Ob         12.589146   27.116087   17.490000  O         1 MOL       -1.0500 ****
1508 Ob          9.119146   29.136087   17.500000  O         1 MOL       -1.0500 ****
1509 Ob          9.979146   26.616087   17.740000  O         1 MOL       -1.0500 ****
1510  H         11.669146   29.446087   19.370000  H         1 MOL        0.4250 ****
1511 Al          7.059146   24.366087   20.790000 Al         1 MOL        1.5750 ****
1512 Si         11.459146   26.106087   18.110000 Si         1 MOL        2.1000 ****
1513 Si         11.359146   23.156087   18.100000 Si         1 MOL        2.1000 ****
1514Omg         11.649146   25.926087   19.730000  O         1 MOL       -1.1808 ****
1515Omg         11.209146   23.186087   19.730000  O         1 MOL       -1.1808 ****
1516 Oh          8.649146   24.216087   19.800000  O         1 MOL       -0.9500 ****
1517 Ob          9.969146   22.636087   17.490000  O         1 MOL       -1.0500 ****
1518 Ob         11.659146   24.656087   17.500000  O         1 MOL       -1.0500 ****
1519 Ob         12.519146   22.136087   17.740000  O         1 MOL       -1.0500 ****
1520  H          9.049146   24.956087   19.370000  H         1 MOL        0.4250 ****
1521 Al         14.779146   22.876087   20.790000 Al         1 MOL        1.5750 ****
1522 Si         15.539146   21.136087   23.470000 Si         1 MOL        2.1000 ****
1523 Si         15.639146   24.086087   23.480000 Si         1 MOL        2.1000 ****
1524 Op         15.339146   21.316087   21.850000  O         1 MOL       -1.0500 ****
1525 Op         15.789146   24.056087   21.850000  O         1 MOL       -1.0500 ****
1526Ohmg         13.189146   23.026087   21.780000  O         1 MOL       -1.0809 ****
1527 Ob         11.869146   24.606087   24.090000  O         1 MOL       -1.0500 ****
1528 Ob         15.329146   22.586087   24.090000  O         1 MOL       -1.0500 ****
1529 Ob         14.469146   25.106087   23.850000  O         1 MOL       -1.0500 ****
1530  H         12.789146   22.286087   22.220000  H         1 MOL        0.4250 ****
1531 Al         12.239146   27.356087   20.790000 Al         1 MOL        1.5750 ****
1532 Si         12.999146   25.626087   23.470000 Si         1 MOL        2.1000 ****
1533 Si         13.099146   28.576087   23.480000 Si         1 MOL        2.1000 ****
1534Omg         12.809146   25.796087   21.850000  O         1 MOL       -1.1808 ****
1535 Op         13.249146   28.536087   21.850000  O         1 MOL       -1.0500 ****
1536Ohmg         15.809146   27.516087   21.780000  O         1 MOL       -1.0809 ****
1537 Ob         14.489146   29.086087   24.090000  O         1 MOL       -1.0500 ****
1538 Ob         12.799146   27.066087   24.090000  O         1 MOL       -1.0500 ****
1539 Ob         11.939146   29.586087   23.850000  O         1 MOL       -1.0500 ****
1540  H         15.409146   26.766087   22.220000  H         1 MOL        0.4250 ****
1541 Al         14.839146   28.846087   20.790000 Al         1 MOL        1.5750 ****
1542 Si         13.999146   21.616087   18.110000 Si         1 MOL        2.1000 ****
1543 Si         13.979146   27.636087   18.100000 Si         1 MOL        2.1000 ****
1544 Op         14.189146   21.446087   19.730000  O         1 MOL       -1.0500 ****
1545 Op         13.829146   27.666087   19.730000  O         1 MOL       -1.0500 ****
1546Ohmg         16.429146   28.696087   19.800000  O         1 MOL       -1.0809 ****
1547 Ob         17.749146   27.116087   17.490000  O         1 MOL       -1.0500 ****
1548 Ob         14.279146   29.136087   17.500000  O         1 MOL       -1.0500 ****
1549 Ob         15.139146   26.616087   17.740000  O         1 MOL       -1.0500 ****
1550  H         16.829146   29.446087   19.370000  H         1 MOL        0.4250 ****
1551Mgo         12.219146   24.366087   20.790000 Mg         1 MOL        1.3600 ****
1552 Si         16.619146   26.106087   18.110000 Si         1 MOL        2.1000 ****
1553 Si         16.519146   23.156087   18.100000 Si         1 MOL        2.1000 ****
1554Omg         16.809146   25.926087   19.730000  O         1 MOL       -1.1808 ****
1555 Op         16.369146   23.186087   19.730000  O         1 MOL       -1.0500 ****
1556Ohmg         13.809146   24.216087   19.800000  O         1 MOL       -1.0809 ****
1557 Ob         15.129146   22.636087   17.490000  O         1 MOL       -1.0500 ****
1558 Ob         16.819146   24.656087   17.500000  O         1 MOL       -1.0500 ****
1559 Ob         17.679146   22.136087   17.740000  O         1 MOL       -1.0500 ****
1560  H         14.209146   24.956087   19.370000  H         1 MOL        0.4250 ****
1561 Al         19.939146   22.876087   20.790000 Al         1 MOL        1.5750 ****
1562 Si         20.699146   21.136087   23.470000 Si         1 MOL        2.1000 ****
1563 Si         20.799146   24.086087   23.480000 Si         1 MOL        2.1000 ****
1564 Op         20.499146   21.316087   21.850000  O         1 MOL       -1.0500 ****
1565 Op         20.949146   24.056087   21.850000  O         1 MOL       -1.0500 ****
1566 Oh         18.349146   23.026087   21.780000  O         1 MOL       -0.9500 ****
1567 Ob         17.029146   24.606087   24.090000  O         1 MOL       -1.0500 ****
1568 Ob         20.489146   22.586087   24.090000  O         1 MOL       -1.0500 ****
1569 Ob         19.629146   25.106087   23.850000  O         1 MOL       -1.0500 ****
1570  H         17.949146   22.286087   22.220000  H         1 MOL        0.4250 ****
1571Mgo         17.399146   27.356087   20.790000 Mg         1 MOL        1.3600 ****
1572 Si         18.159146   25.626087   23.470000 Si         1 MOL        2.1000 ****
1573 Si         18.259146   28.576087   23.480000 Si         1 MOL        2.1000 ****
1574Omg         17.969146   25.796087   21.850000  O         1 MOL       -1.1808 ****
1575Omg         18.409146   28.536087   21.850000  O         1 MOL       -1.1808 ****
1576 Oh         20.969146   27.516087   21.780000  O         1 MOL       -0.9500 ****
1577 Ob         19.649146   29.086087   24.090000  O         1 MOL       -1.0500 ****
1578 Ob         17.959146   27.066087   24.090000  O         1 MOL       -1.0500 ****
1579 Ob         17.099146   29.586087   23.850000  O         1 MOL       -1.0500 ****
1580  H         20.569146   26.766087   22.220000  H         1 MOL        0.4250 ****
1581 Al         19.999146   28.846087   20.790000 Al         1 MOL        1.5750 ****
1582 Si         19.159146   21.616087   18.110000 Si         1 MOL        2.1000 ****
1583 Si         19.139146   27.636087   18.100000 Si         1 MOL        2.1000 ****
1584 Op         19.349146   21.446087   19.730000  O         1 MOL       -1.0500 ****
1585Omg         18.989146   27.666087   19.730000  O         1 MOL       -1.1808 ****
1586 Oh         21.589146   28.696087   19.800000  O         1 MOL       -0.9500 ****
1587 Ob         22.909146   27.116087   17.490000  O         1 MOL       -1.0500 ****
1588 Ob         19.439146   29.136087   17.500000  O         1 MOL       -1.0500 ****
1589 Ob         20.299146   26.616087   17.740000  O         1 MOL       -1.0500 ****
1590  H         21.989146   29.446087   19.370000  H         1 MOL        0.4250 ****
1591 Al         17.379146   24.366087   20.790000 Al         1 MOL        1.5750 ****
1592 Si         21.779146   26.106087   18.110000 Si         1 MOL        2.1000 ****
1593 Si         21.679146   23.156087   18.100000 Si         1 MOL        2.1000 ****
1594 Op         21.969146   25.926087   19.730000  O         1 MOL       -1.0500 ****
1595 Op         21.529146   23.186087   19.730000  O         1 MOL       -1.0500 ****
1596 Oh         18.969146   24.216087   19.800000  O         1 MOL       -0.9500 ****
1597 Ob         20.289146   22.636087   17.490000  O         1 MOL       -1.0500 ****
1598 Ob         21.979146   24.656087   17.500000  O         1 MOL       -1.0500 ****
1599 Ob         22.839146   22.136087   17.740000  O         1 MOL       -1.0500 ****
1600  H         19.369146   24.956087   19.370000  H         1 MOL        0.4250 ****
1601Mgo         25.099146   22.876087   20.790000 Mg         1 MOL        1.3600 ****
1602 Si         25.859146   21.136087   23.470000 Si         1 MOL        2.1000 ****
1603 Si         25.959146   24.086087   23.480000 Si         1 MOL        2.1000 ****
1604Omg         25.659146   21.316087   21.850000  O         1 MOL       -1.1808 ****
1605Omg         26.109146   24.056087   21.850000  O         1 MOL       -1.1808 ****
1606Ohmg         23.509146   23.026087   21.780000  O         1 MOL       -1.0809 ****
1607 Ob         22.189146   24.606087   24.090000  O         1 MOL       -1.0500 ****
1608 Ob         25.649146   22.586087   24.090000  O         1 MOL       -1.0500 ****
1609 Ob         24.789146   25.106087   23.850000  O         1 MOL       -1.0500 ****
1610  H         23.109146   22.286087   22.220000  H         1 MOL        0.4250 ****
1611 Al         22.559146   27.356087   20.790000 Al         1 MOL        1.5750 ****
1612 Si         23.319146   25.626087   23.470000 Si         1 MOL        2.1000 ****
1613 Si         23.419146   28.576087   23.480000 Si         1 MOL        2.1000 ****
1614 Op         23.129146   25.796087   21.850000  O         1 MOL       -1.0500 ****
1615Omg         23.569146   28.536087   21.850000  O         1 MOL       -1.1808 ****
1616Ohmg         26.129146   27.516087   21.780000  O         1 MOL       -1.0809 ****
1617 Ob         24.809146   29.086087   24.090000  O         1 MOL       -1.0500 ****
1618 Ob         23.119146   27.066087   24.090000  O         1 MOL       -1.0500 ****
1619 Ob         22.259146   29.586087   23.850000  O         1 MOL       -1.0500 ****
1620  H         25.729146   26.766087   22.220000  H         1 MOL        0.4250 ****
1621Mgo         25.159146   28.846087   20.790000 Mg         1 MOL        1.3600 ****
1622 Si         24.319146   21.616087   18.110000 Si         1 MOL        2.1000 ****
1623 Si         24.299146   27.636087   18.100000 Si         1 MOL        2.1000 ****
1624Omg         24.509146   21.446087   19.730000  O         1 MOL       -1.1808 ****
1625Omg         24.149146   27.666087   19.730000  O         1 MOL       -1.1808 ****
1626Ohmg         26.749146   28.696087   19.800000  O         1 MOL       -1.0809 ****
1627 Ob         28.069146   27.116087   17.490000  O         1 MOL       -1.0500 ****
1628 Ob         24.599146   29.136087   17.500000  O         1 MOL       -1.0500 ****
1629 Ob         25.459146   26.616087   17.740000  O         1 MOL       -1.0500 ****
1630  H         27.149146   29.446087   19.370000  H         1 MOL        0.4250 ****
1631 Al         22.539146   24.366087   20.790000 Al         1 MOL        1.5750 ****
1632 Si         26.939146   26.106087   18.110000 Si         1 MOL        2.1000 ****
1633 Si         26.839146   23.156087   18.100000 Si         1 MOL        2.1000 ****
1634 Op         27.129146   25.926087   19.730000  O         1 MOL       -1.0500 ****
1635Omg         26.689146   23.186087   19.730000  O         1 MOL       -1.1808 ****
1636Ohmg         24.129146   24.216087   19.800000  O         1 MOL       -1.0809 ****
1637 Ob         25.449146   22.636087   17.490000  O         1 MOL       -1.0500 ****
1638 Ob         27.139146   24.656087   17.500000  O         1 MOL       -1.0500 ****
1639 Ob         27.999146   22.136087   17.740000  O         1 MOL       -1.0500 ****
1640  H         24.529146   24.956087   19.370000  H         1 MOL        0.4250 ****
1641 Al         30.259146   22.876087   20.790000 Al         1 MOL        1.5750 ****
1642 Si          0.059146   21.136087   23.470000 Si         1 MOL        2.1000 ****
1643 Si          0.159146   24.086087   23.480000 Si         1 MOL        2.1000 ****
1644 Op         30.819146   21.316087   21.850000  O         1 MOL       -1.0500 ****
1645Omg          0.309146   24.056087   21.850000  O         1 MOL       -1.1808 ****
1646 Oh         28.669146   23.026087   21.780000  O         1 MOL       -0.9500 ****
1647 Ob         27.349146   24.606087   24.090000  O         1 MOL       -1.0500 ****
1648 Ob         30.809146   22.586087   24.090000  O         1 MOL       -1.0500 ****
1649 Ob         29.949146   25.106087   23.850000  O         1 MOL       -1.0500 ****
1650  H         28.269146   22.286087   22.220000  H         1 MOL        0.4250 ****
1651 Al         27.719146   27.356087   20.790000 Al         1 MOL        1.5750 ****
1652 Si         28.479146   25.626087   23.470000 Si         1 MOL        2.1000 ****
1653 Si         28.579146   28.576087   23.480000 Si         1 MOL        2.1000 ****
1654 Op         28.289146   25.796087   21.850000  O         1 MOL       -1.0500 ****
1655 Op         28.729146   28.536087   21.850000  O         1 MOL       -1.0500 ****
1656 Oh          0.329146   27.516087   21.780000  O         1 MOL       -0.9500 ****
1657 Ob         29.969146   29.086087   24.090000  O         1 MOL       -1.0500 ****
1658 Ob         28.279146   27.066087   24.090000  O         1 MOL       -1.0500 ****
1659 Ob         27.419146   29.586087   23.850000  O         1 MOL       -1.0500 ****
1660  H         30.889146   26.766087   22.220000  H         1 MOL        0.4250 ****
1661 Al         30.319146   28.846087   20.790000 Al         1 MOL        1.5750 ****
1662 Si         29.479146   21.616087   18.110000 Si         1 MOL        2.1000 ****
1663 Si         29.459146   27.636087   18.100000 Si         1 MOL        2.1000 ****
1664 Op         29.669146   21.446087   19.730000  O         1 MOL       -1.0500 ****
1665 Op         29.309146   27.666087   19.730000  O         1 MOL       -1.0500 ****
1666 Oh          0.949146   28.696087   19.800000  O         1 MOL       -0.9500 ****
1667 Ob          2.269146   27.116087   17.490000  O         1 MOL       -1.0500 ****
1668 Ob         29.759146   29.136087   17.500000  O         1 MOL       -1.0500 ****
1669 Ob         30.619146   26.616087   17.740000  O         1 MOL       -1.0500 ****
1670  H          1.349146   29.446087   19.370000  H         1 MOL        0.4250 ****
1671 Al         27.699146   24.366087   20.790000 Al         1 MOL        1.5750 ****
1672 Si          1.139146   26.106087   18.110000 Si         1 MOL        2.1000 ****
1673 Si          1.039146   23.156087   18.100000 Si         1 MOL        2.1000 ****
1674Omg          1.329146   25.926087   19.730000  O         1 MOL       -1.1808 ****
1675Omg          0.889146   23.186087   19.730000  O         1 MOL       -1.1808 ****
1676 Oh         29.289146   24.216087   19.800000  O         1 MOL       -0.9500 ****
1677 Ob         30.609146   22.636087   17.490000  O         1 MOL       -1.0500 ****
1678 Ob          1.339146   24.656087   17.500000  O         1 MOL       -1.0500 ****
1679 Ob          2.199146   22.136087   17.740000  O         1 MOL       -1.0500 ****
1680  H         29.689146   24.956087   19.370000  H         1 MOL        0.4250 ****
1681 Al          4.539146   31.846087   20.790000 Al         1 MOL        1.5750 ****
1682 Si          5.299146   30.106087   23.470000 Si         1 MOL        2.1000 ****
1683 Si          5.399146   33.056087   23.480000 Si         1 MOL        2.1000 ****
1684 Op          5.109146   30.276087   21.850000  O         1 MOL       -1.0500 ****
1685 Op          5.559146   33.026087   21.850000  O         1 MOL       -1.0500 ****
1686Ohmg          2.949146   31.996087   21.780000  O         1 MOL       -1.0809 ****
1687 Ob          1.629146   33.576087   24.090000  O         1 MOL       -1.0500 ****
1688 Ob          5.099146   31.556087   24.090000  O         1 MOL       -1.0500 ****
1689 Ob          4.239146   34.076087   23.850000  O         1 MOL       -1.0500 ****
1690  H          2.549146   31.246087   22.220000  H         1 MOL        0.4250 ****
1691 Al          2.009146    0.462787   20.790000 Al         1 MOL        1.5750 ****
1692 Si          2.759146   34.586087   23.470000 Si         1 MOL        2.1000 ****
1693 Si          2.869146    1.672787   23.480000 Si         1 MOL        2.1000 ****
1694Omg          2.569146   34.756087   21.850000  O         1 MOL       -1.1808 ****
1695 Op          3.019146    1.642787   21.850000  O         1 MOL       -1.0500 ****
1696 Oh          5.579146    0.612787   21.780000  O         1 MOL       -0.9500 ****
1697 Ob          4.249146    2.192787   24.090000  O         1 MOL       -1.0500 ****
1698 Ob          2.559146    0.172787   24.090000  O         1 MOL       -1.0500 ****
1699 Ob          1.699146    2.692787   23.850000  O         1 MOL       -1.0500 ****
1700  H          5.179146   35.736087   22.220000  H         1 MOL        0.4250 ****
1701 Al          4.599146    1.952787   20.790000 Al         1 MOL        1.5750 ****
1702 Si          3.759146   30.586087   18.110000 Si         1 MOL        2.1000 ****
1703 Si          3.749146    0.742787   18.100000 Si         1 MOL        2.1000 ****
1704 Op          3.959146   30.416087   19.730000  O         1 MOL       -1.0500 ****
1705 Op          3.589146    0.772787   19.730000  O         1 MOL       -1.0500 ****
1706 Oh          6.199146    1.802787   19.800000  O         1 MOL       -0.9500 ****
1707 Ob          7.519146    0.222787   17.490000  O         1 MOL       -1.0500 ****
1708 Ob          4.049146    2.242787   17.500000  O         1 MOL       -1.0500 ****
1709 Ob          4.909146   35.586087   17.740000  O         1 MOL       -1.0500 ****
1710  H          6.589146    2.542787   19.370000  H         1 MOL        0.4250 ****
1711Mgo          1.979146   33.326087   20.790000 Mg         1 MOL        1.3600 ****
1712 Si          6.389146   35.066087   18.110000 Si         1 MOL        2.1000 ****
1713 Si          6.279146   32.116087   18.100000 Si         1 MOL        2.1000 ****
1714 Op          6.579146   34.896087   19.730000  O         1 MOL       -1.0500 ****
1715 Op          6.129146   32.156087   19.730000  O         1 MOL       -1.0500 ****
1716Ohmg          3.569146   33.176087   19.800000  O         1 MOL       -1.0809 ****
1717 Ob          4.889146   31.606087   17.490000  O         1 MOL       -1.0500 ****
1718 Ob          6.589146   33.626087   17.500000  O         1 MOL       -1.0500 ****
1719 Ob          7.449146   31.106087   17.740000  O         1 MOL       -1.0500 ****
1720  H          3.969146   33.926087   19.370000  H         1 MOL        0.4250 ****
1721Mgo          9.699146   31.846087   20.790000 Mg         1 MOL        1.3600 ****
1722 Si         10.459146   30.106087   23.470000 Si         1 MOL        2.1000 ****
1723 Si         10.559146   33.056087   23.480000 Si         1 MOL        2.1000 ****
1724Omg         10.269146   30.276087   21.850000  O         1 MOL       -1.1808 ****
1725Omg         10.719146   33.026087   21.850000  O         1 MOL       -1.1808 ****
1726Ohmg          8.109146   31.996087   21.780000  O         1 MOL       -1.0809 ****
1727 Ob          6.789146   33.576087   24.090000  O         1 MOL       -1.0500 ****
1728 Ob         10.259146   31.556087   24.090000  O         1 MOL       -1.0500 ****
1729 Ob          9.399146   34.076087   23.850000  O         1 MOL       -1.0500 ****
1730  H          7.709146   31.246087   22.220000  H         1 MOL        0.4250 ****
1731 Al          7.169146    0.462787   20.790000 Al         1 MOL        1.5750 ****
1732 Si          7.919146   34.586087   23.470000 Si         1 MOL        2.1000 ****
1733 Si          8.029146    1.672787   23.480000 Si         1 MOL        2.1000 ****
1734 Op          7.729146   34.756087   21.850000  O         1 MOL       -1.0500 ****
1735 Op          8.179146    1.642787   21.850000  O         1 MOL       -1.0500 ****
1736 Oh         10.739146    0.612787   21.780000  O         1 MOL       -0.9500 ****
1737 Ob          9.409146    2.192787   24.090000  O         1 MOL       -1.0500 ****
1738 Ob          7.719146    0.172787   24.090000  O         1 MOL       -1.0500 ****
1739 Ob          6.859146    2.692787   23.850000  O         1 MOL       -1.0500 ****
1740  H         10.339146   35.736087   22.220000  H         1 MOL        0.4250 ****
1741 Al          9.759146    1.952787   20.790000 Al         1 MOL        1.5750 ****
1742 Si          8.919146   30.586087   18.110000 Si         1 MOL        2.1000 ****
1743 Si          8.909146    0.742787   18.100000 Si         1 MOL        2.1000 ****
1744Omg          9.119146   30.416087   19.730000  O         1 MOL       -1.1808 ****
1745 Op          8.749146    0.772787   19.730000  O         1 MOL       -1.0500 ****
1746 Oh         11.359146    1.802787   19.800000  O         1 MOL       -0.9500 ****
1747 Ob         12.679146    0.222787   17.490000  O         1 MOL       -1.0500 ****
1748 Ob          9.209146    2.242787   17.500000  O         1 MOL       -1.0500 ****
1749 Ob         10.069146   35.586087   17.740000  O         1 MOL       -1.0500 ****
1750  H         11.749146    2.542787   19.370000  H         1 MOL        0.4250 ****
1751 Al          7.139146   33.326087   20.790000 Al         1 MOL        1.5750 ****
1752 Si         11.549146   35.066087   18.110000 Si         1 MOL        2.1000 ****
1753 Si         11.439146   32.116087   18.100000 Si         1 MOL        2.1000 ****
1754 Op         11.739146   34.896087   19.730000  O         1 MOL       -1.0500 ****
1755Omg         11.289146   32.156087   19.730000  O         1 MOL       -1.1808 ****
1756Ohmg          8.729146   33.176087   19.800000  O         1 MOL       -1.0809 ****
1757 Ob         10.049146   31.606087   17.490000  O         1 MOL       -1.0500 ****
1758 Ob         11.749146   33.626087   17.500000  O         1 MOL       -1.0500 ****
1759 Ob         12.609146   31.106087   17.740000  O         1 MOL       -1.0500 ****
1760  H          9.129146   33.926087   19.370000  H         1 MOL        0.4250 ****
1761 Al         14.859146   31.846087   20.790000 Al         1 MOL        1.5750 ****
1762 Si         15.619146   30.106087   23.470000 Si         1 MOL        2.1000 ****
1763 Si         15.719146   33.056087   23.480000 Si         1 MOL        2.1000 ****
1764 Op         15.429146   30.276087   21.850000  O         1 MOL       -1.0500 ****
1765Omg         15.879146   33.026087   21.850000  O         1 MOL       -1.1808 ****
1766 Oh         13.269146   31.996087   21.780000  O         1 MOL       -0.9500 ****
1767 Ob         11.949146   33.576087   24.090000  O         1 MOL       -1.0500 ****
1768 Ob         15.419146   31.556087   24.090000  O         1 MOL       -1.0500 ****
1769 Ob         14.559146   34.076087   23.850000  O         1 MOL       -1.0500 ****
1770  H         12.869146   31.246087   22.220000  H         1 MOL        0.4250 ****
1771 Al         12.329146    0.462787   20.790000 Al         1 MOL        1.5750 ****
1772 Si         13.079146   34.586087   23.470000 Si         1 MOL        2.1000 ****
1773 Si         13.189146    1.672787   23.480000 Si         1 MOL        2.1000 ****
1774 Op         12.889146   34.756087   21.850000  O         1 MOL       -1.0500 ****
1775 Op         13.339146    1.642787   21.850000  O         1 MOL       -1.0500 ****
1776 Oh         15.899146    0.612787   21.780000  O         1 MOL       -0.9500 ****
1777 Ob         14.569146    2.192787   24.090000  O         1 MOL       -1.0500 ****
1778 Ob         12.879146    0.172787   24.090000  O         1 MOL       -1.0500 ****
1779 Ob         12.019146    2.692787   23.850000  O         1 MOL       -1.0500 ****
1780  H         15.499146   35.736087   22.220000  H         1 MOL        0.4250 ****
1781 Al         14.919146    1.952787   20.790000 Al         1 MOL        1.5750 ****
1782 Si         14.079146   30.586087   18.110000 Si         1 MOL        2.1000 ****
1783 Si         14.069146    0.742787   18.100000 Si         1 MOL        2.1000 ****
1784 Op         14.279146   30.416087   19.730000  O         1 MOL       -1.0500 ****
1785 Op         13.909146    0.772787   19.730000  O         1 MOL       -1.0500 ****
1786 Oh         16.519146    1.802787   19.800000  O         1 MOL       -0.9500 ****
1787 Ob         17.839146    0.222787   17.490000  O         1 MOL       -1.0500 ****
1788 Ob         14.369146    2.242787   17.500000  O         1 MOL       -1.0500 ****
1789 Ob         15.229146   35.586087   17.740000  O         1 MOL       -1.0500 ****
1790  H         16.909146    2.542787   19.370000  H         1 MOL        0.4250 ****
1791 Al         12.299146   33.326087   20.790000 Al         1 MOL        1.5750 ****
1792 Si         16.709146   35.066087   18.110000 Si         1 MOL        2.1000 ****
1793 Si         16.599146   32.116087   18.100000 Si         1 MOL        2.1000 ****
1794Omg         16.899146   34.896087   19.730000  O         1 MOL       -1.1808 ****
1795Omg         16.449146   32.156087   19.730000  O         1 MOL       -1.1808 ****
1796 Oh         13.889146   33.176087   19.800000  O         1 MOL       -0.9500 ****
1797 Ob         15.209146   31.606087   17.490000  O         1 MOL       -1.0500 ****
1798 Ob         16.909146   33.626087   17.500000  O         1 MOL       -1.0500 ****
1799 Ob         17.769146   31.106087   17.740000  O         1 MOL       -1.0500 ****
1800  H         14.289146   33.926087   19.370000  H         1 MOL        0.4250 ****
1801 Al         20.019146   31.846087   20.790000 Al         1 MOL        1.5750 ****
1802 Si         20.779146   30.106087   23.470000 Si         1 MOL        2.1000 ****
1803 Si         20.879146   33.056087   23.480000 Si         1 MOL        2.1000 ****
1804 Op         20.589146   30.276087   21.850000  O         1 MOL       -1.0500 ****
1805 Op         21.039146   33.026087   21.850000  O         1 MOL       -1.0500 ****
1806Ohmg         18.429146   31.996087   21.780000  O         1 MOL       -1.0809 ****
1807 Ob         17.109146   33.576087   24.090000  O         1 MOL       -1.0500 ****
1808 Ob         20.579146   31.556087   24.090000  O         1 MOL       -1.0500 ****
1809 Ob         19.719146   34.076087   23.850000  O         1 MOL       -1.0500 ****
1810  H         18.029146   31.246087   22.220000  H         1 MOL        0.4250 ****
1811 Al         17.489146    0.462787   20.790000 Al         1 MOL        1.5750 ****
1812 Si         18.239146   34.586087   23.470000 Si         1 MOL        2.1000 ****
1813 Si         18.349146    1.672787   23.480000 Si         1 MOL        2.1000 ****
1814Omg         18.049146   34.756087   21.850000  O         1 MOL       -1.1808 ****
1815 Op         18.499146    1.642787   21.850000  O         1 MOL       -1.0500 ****
1816Ohmg         21.059146    0.612787   21.780000  O         1 MOL       -1.0809 ****
1817 Ob         19.729146    2.192787   24.090000  O         1 MOL       -1.0500 ****
1818 Ob         18.039146    0.172787   24.090000  O         1 MOL       -1.0500 ****
1819 Ob         17.179146    2.692787   23.850000  O         1 MOL       -1.0500 ****
1820  H         20.659146   35.736087   22.220000  H         1 MOL        0.4250 ****
1821 Al         20.079146    1.952787   20.790000 Al         1 MOL        1.5750 ****
1822 Si         19.239146   30.586087   18.110000 Si         1 MOL        2.1000 ****
1823 Si         19.229146    0.742787   18.100000 Si         1 MOL        2.1000 ****
1824 Op         19.439146   30.416087   19.730000  O         1 MOL       -1.0500 ****
1825 Op         19.069146    0.772787   19.730000  O         1 MOL       -1.0500 ****
1826Ohmg         21.679146    1.802787   19.800000  O         1 MOL       -1.0809 ****
1827 Ob         22.999146    0.222787   17.490000  O         1 MOL       -1.0500 ****
1828 Ob         19.529146    2.242787   17.500000  O         1 MOL       -1.0500 ****
1829 Ob         20.389146   35.586087   17.740000  O         1 MOL       -1.0500 ****
1830  H         22.069146    2.542787   19.370000  H         1 MOL        0.4250 ****
1831Mgo         17.459146   33.326087   20.790000 Mg         1 MOL        1.3600 ****
1832 Si         21.869146   35.066087   18.110000 Si         1 MOL        2.1000 ****
1833 Si         21.759146   32.116087   18.100000 Si         1 MOL        2.1000 ****
1834Omg         22.059146   34.896087   19.730000  O         1 MOL       -1.1808 ****
1835 Op         21.609146   32.156087   19.730000  O         1 MOL       -1.0500 ****
1836Ohmg         19.049146   33.176087   19.800000  O         1 MOL       -1.0809 ****
1837 Ob         20.369146   31.606087   17.490000  O         1 MOL       -1.0500 ****
1838 Ob         22.069146   33.626087   17.500000  O         1 MOL       -1.0500 ****
1839 Ob         22.929146   31.106087   17.740000  O         1 MOL       -1.0500 ****
1840  H         19.449146   33.926087   19.370000  H         1 MOL        0.4250 ****
1841 Al         25.179146   31.846087   20.790000 Al         1 MOL        1.5750 ****
1842 Si         25.939146   30.106087   23.470000 Si         1 MOL        2.1000 ****
1843 Si         26.039146   33.056087   23.480000 Si         1 MOL        2.1000 ****
1844Omg         25.749146   30.276087   21.850000  O         1 MOL       -1.1808 ****
1845 Op         26.199146   33.026087   21.850000  O         1 MOL       -1.0500 ****
1846 Oh         23.589146   31.996087   21.780000  O         1 MOL       -0.9500 ****
1847 Ob         22.269146   33.576087   24.090000  O         1 MOL       -1.0500 ****
1848 Ob         25.739146   31.556087   24.090000  O         1 MOL       -1.0500 ****
1849 Ob         24.879146   34.076087   23.850000  O         1 MOL       -1.0500 ****
1850  H         23.189146   31.246087   22.220000  H         1 MOL        0.4250 ****
1851Mgo         22.649146    0.462787   20.790000 Mg         1 MOL        1.3600 ****
1852 Si         23.399146   34.586087   23.470000 Si         1 MOL        2.1000 ****
1853 Si         23.509146    1.672787   23.480000 Si         1 MOL        2.1000 ****
1854Omg         23.209146   34.756087   21.850000  O         1 MOL       -1.1808 ****
1855Omg         23.659146    1.642787   21.850000  O         1 MOL       -1.1808 ****
1856 Oh         26.219146    0.612787   21.780000  O         1 MOL       -0.9500 ****
1857 Ob         24.889146    2.192787   24.090000  O         1 MOL       -1.0500 ****
1858 Ob         23.199146    0.172787   24.090000  O         1 MOL       -1.0500 ****
1859 Ob         22.339146    2.692787   23.850000  O         1 MOL       -1.0500 ****
1860  H         25.819146   35.736087   22.220000  H         1 MOL        0.4250 ****
1861 Al         25.239146    1.952787   20.790000 Al         1 MOL        1.5750 ****
1862 Si         24.399146   30.586087   18.110000 Si         1 MOL        2.1000 ****
1863 Si         24.389146    0.742787   18.100000 Si         1 MOL        2.1000 ****
1864Omg         24.599146   30.416087   19.730000  O         1 MOL       -1.1808 ****
1865Omg         24.229146    0.772787   19.730000  O         1 MOL       -1.1808 ****
1866 Oh         26.839146    1.802787   19.800000  O         1 MOL       -0.9500 ****
1867 Ob         28.159146    0.222787   17.490000  O         1 MOL       -1.0500 ****
1868 Ob         24.689146    2.242787   17.500000  O         1 MOL       -1.0500 ****
1869 Ob         25.549146   35.586087   17.740000  O         1 MOL       -1.0500 ****
1870  H         27.229146    2.542787   19.370000  H         1 MOL        0.4250 ****
1871 Al         22.619146   33.326087   20.790000 Al         1 MOL        1.5750 ****
1872 Si         27.029146   35.066087   18.110000 Si         1 MOL        2.1000 ****
1873 Si         26.919146   32.116087   18.100000 Si         1 MOL        2.1000 ****
1874 Op         27.219146   34.896087   19.730000  O         1 MOL       -1.0500 ****
1875 Op         26.769146   32.156087   19.730000  O         1 MOL       -1.0500 ****
1876 Oh         24.209146   33.176087   19.800000  O         1 MOL       -0.9500 ****
1877 Ob         25.529146   31.606087   17.490000  O         1 MOL       -1.0500 ****
1878 Ob         27.229146   33.626087   17.500000  O         1 MOL       -1.0500 ****
1879 Ob         28.089146   31.106087   17.740000  O         1 MOL       -1.0500 ****
1880  H         24.609146   33.926087   19.370000  H         1 MOL        0.4250 ****
1881 Al         30.339146   31.846087   20.790000 Al         1 MOL        1.5750 ****
1882 Si          0.139146   30.106087   23.470000 Si         1 MOL        2.1000 ****
1883 Si          0.239146   33.056087   23.480000 Si         1 MOL        2.1000 ****
1884 Op         30.909146   30.276087   21.850000  O         1 MOL       -1.0500 ****
1885Omg          0.399146   33.026087   21.850000  O         1 MOL       -1.1808 ****
1886 Oh         28.749146   31.996087   21.780000  O         1 MOL       -0.9500 ****
1887 Ob         27.429146   33.576087   24.090000  O         1 MOL       -1.0500 ****
1888 Ob         30.899146   31.556087   24.090000  O         1 MOL       -1.0500 ****
1889 Ob         30.039146   34.076087   23.850000  O         1 MOL       -1.0500 ****
1890  H         28.349146   31.246087   22.220000  H         1 MOL        0.4250 ****
1891 Al         27.809146    0.462787   20.790000 Al         1 MOL        1.5750 ****
1892 Si         28.559146   34.586087   23.470000 Si         1 MOL        2.1000 ****
1893 Si         28.669146    1.672787   23.480000 Si         1 MOL        2.1000 ****
1894 Op         28.369146   34.756087   21.850000  O         1 MOL       -1.0500 ****
1895 Op         28.819146    1.642787   21.850000  O         1 MOL       -1.0500 ****
1896 Oh          0.419146    0.612787   21.780000  O         1 MOL       -0.9500 ****
1897 Ob         30.049146    2.192787   24.090000  O         1 MOL       -1.0500 ****
1898 Ob         28.359146    0.172787   24.090000  O         1 MOL       -1.0500 ****
1899 Ob         27.499146    2.692787   23.850000  O         1 MOL       -1.0500 ****
1900  H          0.019146   35.736087   22.220000  H         1 MOL        0.4250 ****
1901 Al         30.399146    1.952787   20.790000 Al         1 MOL        1.5750 ****
1902 Si         29.559146   30.586087   18.110000 Si         1 MOL        2.1000 ****
1903 Si         29.549146    0.742787   18.100000 Si         1 MOL        2.1000 ****
1904 Op         29.759146   30.416087   19.730000  O         1 MOL       -1.0500 ****
1905 Op         29.389146    0.772787   19.730000  O         1 MOL       -1.0500 ****
1906 Oh          1.039146    1.802787   19.800000  O         1 MOL       -0.9500 ****
1907 Ob          2.359146    0.222787   17.490000  O         1 MOL       -1.0500 ****
1908 Ob         29.849146    2.242787   17.500000  O         1 MOL       -1.0500 ****
1909 Ob         30.709146   35.586087   17.740000  O         1 MOL       -1.0500 ****
1910  H          1.429146    2.542787   19.370000  H         1 MOL        0.4250 ****
1911 Al         27.779146   33.326087   20.790000 Al         1 MOL        1.5750 ****
1912 Si          1.229146   35.066087   18.110000 Si         1 MOL        2.1000 ****
1913 Si          1.119146   32.116087   18.100000 Si         1 MOL        2.1000 ****
1914Omg          1.419146   34.896087   19.730000  O         1 MOL       -1.1808 ****
1915Omg          0.969146   32.156087   19.730000  O         1 MOL       -1.1808 ****
1916 Oh         29.369146   33.176087   19.800000  O         1 MOL       -0.9500 ****
1917 Ob         30.689146   31.606087   17.490000  O         1 MOL       -1.0500 ****
1918 Ob          1.429146   33.626087   17.500000  O         1 MOL       -1.0500 ****
1919 Ob          2.289146   31.106087   17.740000  O         1 MOL       -1.0500 ****
1920  H         29.769146   33.926087   19.370000  H         1 MOL        0.4250 ****
1921 Na          0.993079    7.343762   13.278811 Na         1 MOL        1.0000 ****
1922 Na         19.095225    5.707207    6.328485 Na         1 MOL        1.0000 ****
1923 Na         19.873312   34.276113   13.001820 Na         1 MOL        1.0000 ****
1924 Na         28.419241   33.883330   12.468940 Na         1 MOL        1.0000 ****
1925 Na          5.545304   27.442206   13.120772 Na         1 MOL        1.0000 ****
1926 Na         19.958646   14.187052   13.724078 Na         1 MOL        1.0000 ****
1927 Na         28.509514    0.710069   12.261870 Na         1 MOL        1.0000 ****
1928 Na          1.107527   19.238702    6.472374 Na         1 MOL        1.0000 ****
1929 Na         27.527847   22.385195   13.661958 Na         1 MOL        1.0000 ****
1930 Na         14.410981   19.077668   13.232431 Na         1 MOL        1.0000 ****
1931 Na         27.501202   26.493123    7.096698 Na         1 MOL        1.0000 ****
1932 Na         26.231918   12.284896    8.084133 Na         1 MOL        1.0000 ****
1933 Na         28.518608    5.535165    7.741829 Na         1 MOL        1.0000 ****
1934 Na         12.693518   33.158928   12.521126 Na         1 MOL        1.0000 ****
1935 Na         12.775128   19.357713    6.725142 Na         1 MOL        1.0000 ****
1936 Na         14.936122    0.223680   12.431005 Na         1 MOL        1.0000 ****
1937 Na          5.802804    5.689588   33.719602 Na         1 MOL        1.0000 ****
1938 Na          1.302337    6.697795   27.814140 Na         1 MOL        1.0000 ****
1939 Na         14.312602   33.217981   34.173315 Na         1 MOL        1.0000 ****
1940 Na         22.174083   13.407057   34.713974 Na         1 MOL        1.0000 ****
1941 Na         21.009072    6.942116   34.743874 Na         1 MOL        1.0000 ****
1942 Na         13.388144   26.449545   28.495560 Na         1 MOL        1.0000 ****
1943 Na          7.257703   14.428335   28.554728 Na         1 MOL        1.0000 ****
1944 Na         26.980989    5.515865   27.911916 Na         1 MOL        1.0000 ****
1945 Na          5.628490   33.017934   34.369984 Na         1 MOL        1.0000 ****
1946 Na         26.679384   33.221438   33.641888 Na         1 MOL        1.0000 ****
1947 Na         22.308616    0.756881   34.786948 Na         1 MOL        1.0000 ****
1948 Na         27.431639    6.162887   34.568040 Na         1 MOL        1.0000 ****
1949 Na         15.091236   12.610867   34.425684 Na         1 MOL        1.0000 ****
1950 Na         19.239454   20.767661   27.916649 Na         1 MOL        1.0000 ****
1951 Na         15.441028   26.324402   35.520328 Na         1 MOL        1.0000 ****
1952 Na         19.299354    0.563227   28.512906 Na         1 MOL        1.0000 ****
1953 Ow          2.818182    2.772727    9.536364  O         1 MOL       -0.8476 ****
1954 Hw          3.136364    2.618182   10.372727  H         1 MOL        0.4238 ****
1955 Hw          2.018182    2.363636    9.427273  H         1 MOL        0.4238 ****
1956 Ow          0.945455    3.618182    6.363636  O         1 MOL       -0.8476 ****
1957 Hw          0.200000    4.009091    6.718182  H         1 MOL        0.4238 ****
1958 Hw          0.690909    2.954545    5.790909  H         1 MOL        0.4238 ****
1959 Ow          5.945455   11.863636   11.072727  O         1 MOL       -0.8476 ****
1960 Hw          5.100000   11.800000   10.736364  H         1 MOL        0.4238 ****
1961 Hw          6.045455   12.672727   11.472727  H         1 MOL        0.4238 ****
1962 Ow         16.618182    5.890909    8.263636  O         1 MOL       -0.8476 ****
1963 Hw         16.918182    6.745455    8.263636  H         1 MOL        0.4238 ****
1964 Hw         17.081818    5.400000    8.863636  H         1 MOL        0.4238 ****
1965 Ow         11.090909    6.663636    7.000000  O         1 MOL       -0.8476 ****
1966 Hw         11.609091    7.372727    6.772727  H         1 MOL        0.4238 ****
1967 Hw         10.545455    6.900000    7.690909  H         1 MOL        0.4238 ****
1968 Ow          7.754545   10.672727    9.781818  O         1 MOL       -0.8476 ****
1969 Hw          7.045455   10.827273   10.327273  H         1 MOL        0.4238 ****
1970 Hw          8.063636   11.463636    9.454545  H         1 MOL        0.4238 ****
1971 Ow          7.000000    9.472727    6.527273  O         1 MOL       -0.8476 ****
1972 Hw          7.627273    9.327273    7.163636  H         1 MOL        0.4238 ****
1973 Hw          6.336364    9.990909    6.872727  H         1 MOL        0.4238 ****
1974 Ow          3.818182   13.318182   10.127273  O         1 MOL       -0.8476 ****
1975 Hw          3.109091   13.036364    9.645455  H         1 MOL        0.4238 ****
1976 Hw          4.345455   13.845455    9.609091  H         1 MOL        0.4238 ****
1977 Ow         14.045455   13.954545   12.654545  O         1 MOL       -0.8476 ****
1978 Hw         14.263636   14.809091   12.890909  H         1 MOL        0.4238 ****
1979 Hw         13.900000   13.463636   13.400000  H         1 MOL        0.4238 ****
1980 Ow          4.754545    3.836364   14.109091  O         1 MOL       -0.8476 ****
1981 Hw          5.500000    3.327273   14.190909  H         1 MOL        0.4238 ****
1982 Hw          4.018182    3.309091   14.145455  H         1 MOL        0.4238 ****
1983 Ow         15.345455    4.336364    7.181818  O         1 MOL       -0.8476 ****
1984 Hw         14.672727    4.754545    6.727273  H         1 MOL        0.4238 ****
1985 Hw         15.809091    4.954545    7.663636  H         1 MOL        0.4238 ****
1986 Ow         11.018182   12.463636   15.845455  O         1 MOL       -0.8476 ****
1987 Hw         11.445455   12.463636   16.645455  H         1 MOL        0.4238 ****
1988 Hw         10.581818   11.672727   15.745455  H         1 MOL        0.4238 ****
1989 Ow          2.863636   13.309091    5.372727  O         1 MOL       -0.8476 ****
1990 Hw          2.627273   14.181818    5.372727  H         1 MOL        0.4238 ****
1991 Hw          2.218182   12.818182    5.781818  H         1 MOL        0.4238 ****
1992 Ow          2.954545   10.190909    8.536364  O         1 MOL       -0.8476 ****
1993 Hw          3.081818    9.427273    9.009091  H         1 MOL        0.4238 ****
1994 Hw          2.454545   10.772727    9.036364  H         1 MOL        0.4238 ****
1995 Ow          6.409091   16.509091   13.563636  O         1 MOL       -0.8476 ****
1996 Hw          5.572727   16.354545   13.881818  H         1 MOL        0.4238 ****
1997 Hw          6.663636   17.345455   13.800000  H         1 MOL        0.4238 ****
1998 Ow          1.881818    6.118182    5.600000  O         1 MOL       -0.8476 ****
1999 Hw          1.472727    5.318182    5.754545  H         1 MOL        0.4238 ****
2000 Hw          1.872727    6.609091    6.363636  H         1 MOL        0.4238 ****
2001 Ow         16.127273    8.654545    6.045455  O         1 MOL       -0.8476 ****
2002 Hw         16.990909    8.390909    6.118182  H         1 MOL        0.4238 ****
2003 Hw         16.054545    9.245455    5.363636  H         1 MOL        0.4238 ****
2004 Ow         15.690909   10.345455    4.409091  O         1 MOL       -0.8476 ****
2005 Hw         16.472727   10.363636    3.936364  H         1 MOL        0.4238 ****
2006 Hw         15.818182   10.772727    5.209091  H         1 MOL        0.4238 ****
2007 Ow          6.345455   12.681818    7.081818  O         1 MOL       -0.8476 ****
2008 Hw          5.900000   11.890909    7.163636  H         1 MOL        0.4238 ****
2009 Hw          6.136364   13.072727    6.290909  H         1 MOL        0.4238 ****
2010 Ow          2.563636    9.145455   11.972727  O         1 MOL       -0.8476 ****
2011 Hw          3.372727    8.736364   11.845455  H         1 MOL        0.4238 ****
2012 Hw          1.900000    8.554545   11.800000  H         1 MOL        0.4238 ****
2013 Ow         11.563636   16.563636   15.172727  O         1 MOL       -0.8476 ****
2014 Hw         11.781818   17.109091   14.481818  H         1 MOL        0.4238 ****
2015 Hw         11.627273   15.700000   14.900000  H         1 MOL        0.4238 ****
2016 Ow         14.100000   13.154545    9.145455  O         1 MOL       -0.8476 ****
2017 Hw         13.563636   13.209091    9.872727  H         1 MOL        0.4238 ****
2018 Hw         13.963636   12.354545    8.727273  H         1 MOL        0.4238 ****
2019 Ow          8.109091    5.772727   13.800000  O         1 MOL       -0.8476 ****
2020 Hw          7.681818    5.745455   14.609091  H         1 MOL        0.4238 ****
2021 Hw          7.645455    5.272727   13.200000  H         1 MOL        0.4238 ****
2022 Ow         13.445455    4.536364   15.700000  O         1 MOL       -0.8476 ****
2023 Hw         13.263636    4.927273   16.500000  H         1 MOL        0.4238 ****
2024 Hw         14.154545    3.972727   15.781818  H         1 MOL        0.4238 ****
2025 Ow          9.618182    8.363636   14.772727  O         1 MOL       -0.8476 ****
2026 Hw         10.036364    7.600000   14.509091  H         1 MOL        0.4238 ****
2027 Hw          9.109091    8.672727   14.090909  H         1 MOL        0.4238 ****
2028 Ow          1.463636    7.645455    7.654545  O         1 MOL       -0.8476 ****
2029 Hw          2.363636    7.536364    7.736364  H         1 MOL        0.4238 ****
2030 Hw          1.245455    8.509091    7.845455  H         1 MOL        0.4238 ****
2031 Ow          1.954545   16.827273   14.763636  O         1 MOL       -0.8476 ****
2032 Hw          1.863636   16.690909   15.663636  H         1 MOL        0.4238 ****
2033 Hw          1.172727   17.154545   14.436364  H         1 MOL        0.4238 ****
2034 Ow          5.772727    2.054545    8.527273  O         1 MOL       -0.8476 ****
2035 Hw          5.727273    2.009091    9.436364  H         1 MOL        0.4238 ****
2036 Hw          5.790909    2.927273    8.263636  H         1 MOL        0.4238 ****
2037 Ow          3.963636   16.645455    8.236364  O         1 MOL       -0.8476 ****
2038 Hw          4.418182   15.863636    8.290909  H         1 MOL        0.4238 ****
2039 Hw          4.554545   17.345455    8.209091  H         1 MOL        0.4238 ****
2040 Ow         17.090909    9.963636    8.418182  O         1 MOL       -0.8476 ****
2041 Hw         16.527273    9.827273    7.727273  H         1 MOL        0.4238 ****
2042 Hw         16.618182   10.063636    9.190909  H         1 MOL        0.4238 ****
2043 Ow         11.927273   14.363636   14.172727  O         1 MOL       -0.8476 ****
2044 Hw         11.981818   13.663636   14.754545  H         1 MOL        0.4238 ****
2045 Hw         11.454545   14.127273   13.445455  H         1 MOL        0.4238 ****
2046 Ow         14.027273    6.954545    7.100000  O         1 MOL       -0.8476 ****
2047 Hw         13.981818    6.363636    7.781818  H         1 MOL        0.4238 ****
2048 Hw         14.754545    7.490909    7.218182  H         1 MOL        0.4238 ****
2049 Ow          3.036364   16.500000   11.763636  O         1 MOL       -0.8476 ****
2050 Hw          3.554545   15.909091   12.218182  H         1 MOL        0.4238 ****
2051 Hw          2.890909   16.200000   10.918182  H         1 MOL        0.4238 ****
2052 Ow          4.245455    6.636364    4.845455  O         1 MOL       -0.8476 ****
2053 Hw          4.654545    5.818182    4.818182  H         1 MOL        0.4238 ****
2054 Hw          3.390909    6.536364    5.145455  H         1 MOL        0.4238 ****
2055 Ow          8.845455   14.036364   11.345455  O         1 MOL       -0.8476 ****
2056 Hw          8.636364   13.809091   10.490909  H         1 MOL        0.4238 ****
2057 Hw          9.400000   13.409091   11.700000  H         1 MOL        0.4238 ****
2058 Ow         13.054545    5.636364   13.509091  O         1 MOL       -0.8476 ****
2059 Hw         13.309091    5.245455   14.281818  H         1 MOL        0.4238 ****
2060 Hw         13.281818    6.509091   13.518182  H         1 MOL        0.4238 ****
2061 Ow          8.072727   13.018182    8.881818  O         1 MOL       -0.8476 ****
2062 Hw          8.890909   13.145455    8.500000  H         1 MOL        0.4238 ****
2063 Hw          7.427273   13.036364    8.236364  H         1 MOL        0.4238 ****
2064 Ow          9.154545    4.845455    8.654545  O         1 MOL       -0.8476 ****
2065 Hw          8.927273    4.763636    7.781818  H         1 MOL        0.4238 ****
2066 Hw          9.590909    4.100000    8.936364  H         1 MOL        0.4238 ****
2067 Ow          5.672727    0.854545    5.136364  O         1 MOL       -0.8476 ****
2068 Hw          4.936364    0.863636    5.663636  H         1 MOL        0.4238 ****
2069 Hw          5.700000    1.609091    4.636364  H         1 MOL        0.4238 ****
2070 Ow         10.554545    6.481818   13.790909  O         1 MOL       -0.8476 ****
2071 Hw          9.827273    5.927273   13.818182  H         1 MOL        0.4238 ****
2072 Hw         11.290909    6.000000   13.572727  H         1 MOL        0.4238 ****
2073 Ow         11.927273   14.545455    7.690909  O         1 MOL       -0.8476 ****
2074 Hw         12.118182   15.218182    7.100000  H         1 MOL        0.4238 ****
2075 Hw         12.545455   14.545455    8.354545  H         1 MOL        0.4238 ****
2076 Ow         12.327273   16.609091    5.854545  O         1 MOL       -0.8476 ****
2077 Hw         12.727273   17.190909    5.272727  H         1 MOL        0.4238 ****
2078 Hw         11.872727   17.081818    6.490909  H         1 MOL        0.4238 ****
2079 Ow          8.645455    4.400000    6.318182  O         1 MOL       -0.8476 ****
2080 Hw          8.354545    5.054545    5.754545  H         1 MOL        0.4238 ****
2081 Hw          8.863636    3.663636    5.836364  H         1 MOL        0.4238 ****
2082 Ow         10.018182    0.627273    7.327273  O         1 MOL       -0.8476 ****
2083 Hw          9.363636    0.672727    6.700000  H         1 MOL        0.4238 ****
2084 Hw          9.800000    0.000000    7.954545  H         1 MOL        0.4238 ****
2085 Ow         13.763636   10.936364    8.363636  O         1 MOL       -0.8476 ****
2086 Hw         13.263636   10.172727    8.300000  H         1 MOL        0.4238 ****
2087 Hw         14.000000   11.200000    7.527273  H         1 MOL        0.4238 ****
2088 Ow         15.900000   11.909091    6.454545  O         1 MOL       -0.8476 ****
2089 Hw         16.800000   11.981818    6.581818  H         1 MOL        0.4238 ****
2090 Hw         15.490909   12.672727    6.736364  H         1 MOL        0.4238 ****
2091 Ow         16.718182   11.390909   14.918182  O         1 MOL       -0.8476 ****
2092 Hw         17.545455   11.036364   14.800000  H         1 MOL        0.4238 ****
2093 Hw         16.790909   12.263636   15.136364  H         1 MOL        0.4238 ****
2094 Ow         10.445455   12.518182   12.663636  O         1 MOL       -0.8476 ****
2095 Hw          9.718182   12.309091   13.163636  H         1 MOL        0.4238 ****
2096 Hw         11.200000   12.281818   13.109091  H         1 MOL        0.4238 ****
2097 Ow         15.663636   10.263636   10.290909  O         1 MOL       -0.8476 ****
2098 Hw         15.709091   11.000000   10.827273  H         1 MOL        0.4238 ****
2099 Hw         14.881818   10.281818    9.827273  H         1 MOL        0.4238 ****
2100 Ow          9.090909    1.081818   13.227273  O         1 MOL       -0.8476 ****
2101 Hw          9.318182    0.900000   12.363636  H         1 MOL        0.4238 ****
2102 Hw          9.745455    1.590909   13.609091  H         1 MOL        0.4238 ****
2103 Ow          4.500000    7.663636   11.854545  O         1 MOL       -0.8476 ****
2104 Hw          5.281818    7.772727   12.309091  H         1 MOL        0.4238 ****
2105 Hw          4.118182    6.872727   12.100000  H         1 MOL        0.4238 ****
2106 Ow         12.354545    3.781818   11.954545  O         1 MOL       -0.8476 ****
2107 Hw         12.545455    4.454545   12.536364  H         1 MOL        0.4238 ****
2108 Hw         11.545455    3.936364   11.563636  H         1 MOL        0.4238 ****
2109 Ow          1.354545   14.490909   12.581818  O         1 MOL       -0.8476 ****
2110 Hw          0.936364   15.236364   12.272727  H         1 MOL        0.4238 ****
2111 Hw          2.245455   14.663636   12.663636  H         1 MOL        0.4238 ****
2112 Ow          5.918182    5.154545    8.345455  O         1 MOL       -0.8476 ****
2113 Hw          6.027273    5.754545    7.672727  H         1 MOL        0.4238 ****
2114 Hw          6.336364    5.463636    9.100000  H         1 MOL        0.4238 ****
2115 Ow          3.990909   14.000000   12.563636  O         1 MOL       -0.8476 ****
2116 Hw          3.800000   13.600000   11.772727  H         1 MOL        0.4238 ****
2117 Hw          4.872727   14.236364   12.590909  H         1 MOL        0.4238 ****
2118 Ow          4.427273    7.100000   15.009091  O         1 MOL       -0.8476 ****
2119 Hw          5.045455    7.600000   14.581818  H         1 MOL        0.4238 ****
2120 Hw          4.790909    6.300000   15.254545  H         1 MOL        0.4238 ****
2121 Ow         15.200000    7.354545   15.663636  O         1 MOL       -0.8476 ****
2122 Hw         14.363636    7.700000   15.618182  H         1 MOL        0.4238 ****
2123 Hw         15.745455    7.781818   15.072727  H         1 MOL        0.4238 ****
2124 Ow          3.563636    2.209091   11.672727  O         1 MOL       -0.8476 ****
2125 Hw          3.354545    2.545455   12.490909  H         1 MOL        0.4238 ****
2126 Hw          3.290909    1.345455   11.618182  H         1 MOL        0.4238 ****
2127 Ow          1.109091   12.181818   12.136364  O         1 MOL       -0.8476 ****
2128 Hw          1.590909   11.736364   12.754545  H         1 MOL        0.4238 ****
2129 Hw          1.309091   13.072727   12.181818  H         1 MOL        0.4238 ****
2130 Ow          7.427273    6.036364   10.154545  O         1 MOL       -0.8476 ****
2131 Hw          7.963636    5.800000    9.463636  H         1 MOL        0.4238 ****
2132 Hw          7.172727    6.909091   10.054545  H         1 MOL        0.4238 ****
2133 Ow         10.072727    7.236364    9.263636  O         1 MOL       -0.8476 ****
2134 Hw         10.209091    7.427273   10.136364  H         1 MOL        0.4238 ****
2135 Hw          9.800000    6.372727    9.181818  H         1 MOL        0.4238 ****
2136 Ow          0.745455   14.072727   15.072727  O         1 MOL       -0.8476 ****
2137 Hw          0.872727   14.318182   14.209091  H         1 MOL        0.4238 ****
2138 Hw          1.500000   14.272727   15.554545  H         1 MOL        0.4238 ****
2139 Ow         10.481818   12.390909    8.200000  O         1 MOL       -0.8476 ****
2140 Hw         10.545455   11.627273    7.700000  H         1 MOL        0.4238 ****
2141 Hw         11.045455   13.018182    7.872727  H         1 MOL        0.4238 ****
2142 Ow          3.854545    4.900000    9.627273  O         1 MOL       -0.8476 ****
2143 Hw          3.381818    4.145455    9.472727  H         1 MOL        0.4238 ****
2144 Hw          4.554545    4.945455    9.045455  H         1 MOL        0.4238 ****
2145 Ow         11.318182    2.154545   13.909091  O         1 MOL       -0.8476 ****
2146 Hw         11.318182    2.736364   14.609091  H         1 MOL        0.4238 ****
2147 Hw         11.572727    2.590909   13.154545  H         1 MOL        0.4238 ****
2148 Ow          1.572727   16.645455    8.909091  O         1 MOL       -0.8476 ****
2149 Hw          1.190909   15.863636    8.663636  H         1 MOL        0.4238 ****
2150 Hw          2.427273   16.672727    8.600000  H         1 MOL        0.4238 ****
2151 Ow          9.881818    7.509091   11.736364  O         1 MOL       -0.8476 ****
2152 Hw         10.254545    7.218182   12.518182  H         1 MOL        0.4238 ****
2153 Hw          9.009091    7.263636   11.709091  H         1 MOL        0.4238 ****
2154 Ow          1.136364    5.218182   10.609091  O         1 MOL       -0.8476 ****
2155 Hw          1.909091    4.918182   10.236364  H         1 MOL        0.4238 ****
2156 Hw          1.254545    5.354545   11.500000  H         1 MOL        0.4238 ****
2157 Ow         13.218182    8.909091   15.572727  O         1 MOL       -0.8476 ****
2158 Hw         13.572727    9.718182   15.754545  H         1 MOL        0.4238 ****
2159 Hw         13.309091    8.727273   14.690909  H         1 MOL        0.4238 ****
2160 Ow         15.836364    5.763636   11.445455  O         1 MOL       -0.8476 ****
2161 Hw         15.490909    5.136364   12.009091  H         1 MOL        0.4238 ****
2162 Hw         16.581818    5.436364   11.045455  H         1 MOL        0.4238 ****
2163 Ow          6.872727    4.490909   12.018182  O         1 MOL       -0.8476 ****
2164 Hw          6.563636    3.681818   11.745455  H         1 MOL        0.4238 ****
2165 Hw          7.109091    4.981818   11.290909  H         1 MOL        0.4238 ****
2166 Ow          9.227273   15.527273   13.800000  O         1 MOL       -0.8476 ****
2167 Hw          9.009091   15.363636   12.936364  H         1 MOL        0.4238 ****
2168 Hw          9.500000   16.381818   13.890909  H         1 MOL        0.4238 ****
2169 Ow          2.218182   10.609091   13.809091  O         1 MOL       -0.8476 ****
2170 Hw          2.418182   10.054545   14.500000  H         1 MOL        0.4238 ****
2171 Hw          2.309091   10.163636   13.027273  H         1 MOL        0.4238 ****
2172 Ow         13.018182    9.900000   11.700000  O         1 MOL       -0.8476 ****
2173 Hw         13.236364    9.327273   11.027273  H         1 MOL        0.4238 ****
2174 Hw         12.200000   10.263636   11.536364  H         1 MOL        0.4238 ****
2175 Ow         12.154545   16.009091   10.736364  O         1 MOL       -0.8476 ****
2176 Hw         12.918182   16.054545   10.245455  H         1 MOL        0.4238 ****
2177 Hw         11.945455   15.136364   10.900000  H         1 MOL        0.4238 ****
2178 Ow          1.527273   11.709091    9.772727  O         1 MOL       -0.8476 ****
2179 Hw          1.481818   11.700000   10.681818  H         1 MOL        0.4238 ****
2180 Hw          0.772727   11.336364    9.427273  H         1 MOL        0.4238 ****
2181 Ow         16.463636    1.500000    5.236364  O         1 MOL       -0.8476 ****
2182 Hw         17.127273    1.345455    4.627273  H         1 MOL        0.4238 ****
2183 Hw         16.181818    0.709091    5.581818  H         1 MOL        0.4238 ****
2184 Ow         13.390909   14.572727    4.818182  O         1 MOL       -0.8476 ****
2185 Hw         14.000000   14.681818    4.145455  H         1 MOL        0.4238 ****
2186 Hw         13.027273   15.381818    5.027273  H         1 MOL        0.4238 ****
2187 Ow         12.409091    8.700000    6.590909  O         1 MOL       -0.8476 ****
2188 Hw         12.954545    7.963636    6.609091  H         1 MOL        0.4238 ****
2189 Hw         12.772727    9.327273    6.045455  H         1 MOL        0.4238 ****
2190 Ow          8.318182   11.845455   13.409091  O         1 MOL       -0.8476 ****
2191 Hw          8.272727   12.145455   14.272727  H         1 MOL        0.4238 ****
2192 Hw          7.536364   12.018182   12.990909  H         1 MOL        0.4238 ****
2193 Ow         17.509091    1.863636    9.236364  O         1 MOL       -0.8476 ****
2194 Hw         17.863636    1.090909    8.909091  H         1 MOL        0.4238 ****
2195 Hw         16.618182    1.881818    9.063636  H         1 MOL        0.4238 ****
2196 Ow          3.163636    3.236364    7.027273  O         1 MOL       -0.8476 ****
2197 Hw          2.445455    3.700000    6.718182  H         1 MOL        0.4238 ****
2198 Hw          3.081818    3.100000    7.918182  H         1 MOL        0.4238 ****
2199 Ow          4.154545   11.981818   14.027273  O         1 MOL       -0.8476 ****
2200 Hw          4.036364   12.827273   13.718182  H         1 MOL        0.4238 ****
2201 Hw          3.390909   11.509091   13.909091  H         1 MOL        0.4238 ****
2202 Ow         15.445455   12.018182   12.200000  O         1 MOL       -0.8476 ****
2203 Hw         15.990909   12.045455   12.927273  H         1 MOL        0.4238 ****
2204 Hw         14.763636   12.600000   12.318182  H         1 MOL        0.4238 ****
2205 Ow         10.218182   10.254545    6.809091  O         1 MOL       -0.8476 ****
2206 Hw          9.581818    9.827273    7.300000  H         1 MOL        0.4238 ****
2207 Hw         10.754545    9.636364    6.418182  H         1 MOL        0.4238 ****
2208 Ow          9.990909    2.418182    9.309091  O         1 MOL       -0.8476 ****
2209 Hw          9.918182    2.090909    8.463636  H         1 MOL        0.4238 ****
2210 Hw          9.972727    1.727273    9.900000  H         1 MOL        0.4238 ****
2211 Ow         16.309091    3.772727   13.036364  O         1 MOL       -0.8476 ****
2212 Hw         16.972727    4.400000   13.072727  H         1 MOL        0.4238 ****
2213 Hw         16.563636    3.090909   12.500000  H         1 MOL        0.4238 ****
2214 Ow          6.881818    2.118182   14.018182  O         1 MOL       -0.8476 ****
2215 Hw          7.700000    1.972727   13.654545  H         1 MOL        0.4238 ****
2216 Hw          6.954545    2.163636   14.918182  H         1 MOL        0.4238 ****
2217 Ow          6.345455    7.927273   13.490909  O         1 MOL       -0.8476 ****
2218 Hw          6.854545    8.663636   13.336364  H         1 MOL        0.4238 ****
2219 Hw          6.881818    7.200000   13.518182  H         1 MOL        0.4238 ****
2220 Ow          4.318182   16.100000   14.663636  O         1 MOL       -0.8476 ****
2221 Hw          3.490909   16.472727   14.645455  H         1 MOL        0.4238 ****
2222 Hw          4.254545   15.245455   14.954545  H         1 MOL        0.4238 ****
2223 Ow         15.990909    8.300000   11.881818  O         1 MOL       -0.8476 ****
2224 Hw         15.745455    7.490909   11.545455  H         1 MOL        0.4238 ****
2225 Hw         16.000000    8.918182   11.218182  H         1 MOL        0.4238 ****
2226 Ow         16.500000    8.763636   14.272727  O         1 MOL       -0.8476 ****
2227 Hw         16.845455    9.590909   14.409091  H         1 MOL        0.4238 ****
2228 Hw         16.427273    8.609091   13.372727  H         1 MOL        0.4238 ****
2229 Ow          6.781818   16.545455    9.145455  O         1 MOL       -0.8476 ****
2230 Hw          6.363636   17.345455    9.027273  H         1 MOL        0.4238 ****
2231 Hw          7.681818   16.654545    9.081818  H         1 MOL        0.4238 ****
2232 Ow         13.572727   17.100000   16.118182  O         1 MOL       -0.8476 ****
2233 Hw         12.700000   17.000000   15.872727  H         1 MOL        0.4238 ****
2234 Hw         14.081818   16.490909   15.681818  H         1 MOL        0.4238 ****
2235 Ow          8.581818    8.963636    8.309091  O         1 MOL       -0.8476 ****
2236 Hw          9.072727    8.336364    8.745455  H         1 MOL        0.4238 ****
2237 Hw          8.290909    9.590909    8.909091  H         1 MOL        0.4238 ****
2238 Ow          0.763636   14.536364    8.218182  O         1 MOL       -0.8476 ****
2239 Hw          0.118182   14.427273    7.581818  H         1 MOL        0.4238 ****
2240 Hw          0.772727   13.818182    8.763636  H         1 MOL        0.4238 ****
2241 Ow          1.490909   11.545455    6.418182  O         1 MOL       -0.8476 ****
2242 Hw          1.481818   11.118182    7.218182  H         1 MOL        0.4238 ****
2243 Hw          2.236364   11.290909    5.954545  H         1 MOL        0.4238 ****
2244 Ow          6.881818   12.918182   15.245455  O         1 MOL       -0.8476 ****
2245 Hw          6.172727   12.463636   15.590909  H         1 MOL        0.4238 ****
2246 Hw          6.854545   13.781818   15.527273  H         1 MOL        0.4238 ****
2247 Ow         17.354545    2.018182   11.636364  O         1 MOL       -0.8476 ****
2248 Hw         17.318182    1.200000   12.036364  H         1 MOL        0.4238 ****
2249 Hw         17.381818    1.918182   10.736364  H         1 MOL        0.4238 ****
2250 Ow         16.272727   13.790909   10.518182  O         1 MOL       -0.8476 ****
2251 Hw         15.427273   13.563636   10.272727  H         1 MOL        0.4238 ****
2252 Hw         16.509091   13.336364   11.263636  H         1 MOL        0.4238 ****
2253 Ow          3.654545    5.245455   12.118182  O         1 MOL       -0.8476 ****
2254 Hw          4.000000    4.709091   12.772727  H         1 MOL        0.4238 ****
2255 Hw          4.018182    5.009091   11.318182  H         1 MOL        0.4238 ****
2256 Ow          9.872727   17.509091   10.972727  O         1 MOL       -0.8476 ****
2257 Hw          9.300000   16.854545   10.690909  H         1 MOL        0.4238 ****
2258 Hw         10.718182   17.181818   10.972727  H         1 MOL        0.4238 ****
2259 Ow          6.390909   14.518182   12.154545  O         1 MOL       -0.8476 ****
2260 Hw          6.345455   15.263636   12.672727  H         1 MOL        0.4238 ****
2261 Hw          7.200000   14.490909   11.745455  H         1 MOL        0.4238 ****
2262 Ow          8.727273   15.236364    3.545455  O         1 MOL       -0.8476 ****
2263 Hw          8.027273   14.918182    3.054545  H         1 MOL        0.4238 ****
2264 Hw          8.436364   15.881818    4.109091  H         1 MOL        0.4238 ****
2265 Ow         19.745455    2.772727    9.536364  O         1 MOL       -0.8476 ****
2266 Hw         20.063636    2.618182   10.372727  H         1 MOL        0.4238 ****
2267 Hw         18.945455    2.363636    9.427273  H         1 MOL        0.4238 ****
2268 Ow         22.872727   11.863636   11.072727  O         1 MOL       -0.8476 ****
2269 Hw         22.027273   11.800000   10.736364  H         1 MOL        0.4238 ****
2270 Hw         22.972727   12.672727   11.472727  H         1 MOL        0.4238 ****
2271 Ow         24.681818   10.672727    9.781818  O         1 MOL       -0.8476 ****
2272 Hw         23.972727   10.827273   10.327273  H         1 MOL        0.4238 ****
2273 Hw         24.990909   11.463636    9.454545  H         1 MOL        0.4238 ****
2274 Ow         23.927273    9.472727    6.527273  O         1 MOL       -0.8476 ****
2275 Hw         24.554545    9.327273    7.163636  H         1 MOL        0.4238 ****
2276 Hw         23.263636    9.990909    6.872727  H         1 MOL        0.4238 ****
2277 Ow         20.745455   13.318182   10.127273  O         1 MOL       -0.8476 ****
2278 Hw         20.036364   13.036364    9.645455  H         1 MOL        0.4238 ****
2279 Hw         21.272727   13.845455    9.609091  H         1 MOL        0.4238 ****
2280 Ow         19.790909   13.309091    5.372727  O         1 MOL       -0.8476 ****
2281 Hw         19.554545   14.181818    5.372727  H         1 MOL        0.4238 ****
2282 Hw         19.145455   12.818182    5.781818  H         1 MOL        0.4238 ****
2283 Ow         19.881818   10.190909    8.536364  O         1 MOL       -0.8476 ****
2284 Hw         20.009091    9.427273    9.009091  H         1 MOL        0.4238 ****
2285 Hw         19.381818   10.772727    9.036364  H         1 MOL        0.4238 ****
2286 Ow         18.727273    6.972727   15.000000  O         1 MOL       -0.8476 ****
2287 Hw         19.527273    6.854545   15.409091  H         1 MOL        0.4238 ****
2288 Hw         18.609091    7.854545   14.800000  H         1 MOL        0.4238 ****
2289 Ow         23.272727   12.681818    7.081818  O         1 MOL       -0.8476 ****
2290 Hw         22.827273   11.890909    7.163636  H         1 MOL        0.4238 ****
2291 Hw         23.063636   13.072727    6.290909  H         1 MOL        0.4238 ****
2292 Ow         19.490909    9.145455   11.972727  O         1 MOL       -0.8476 ****
2293 Hw         20.300000    8.736364   11.845455  H         1 MOL        0.4238 ****
2294 Hw         18.827273    8.554545   11.800000  H         1 MOL        0.4238 ****
2295 Ow         28.490909   16.563636   15.172727  O         1 MOL       -0.8476 ****
2296 Hw         28.709091   17.109091   14.481818  H         1 MOL        0.4238 ****
2297 Hw         28.554545   15.700000   14.900000  H         1 MOL        0.4238 ****
2298 Ow         25.036364    5.772727   13.800000  O         1 MOL       -0.8476 ****
2299 Hw         24.609091    5.745455   14.609091  H         1 MOL        0.4238 ****
2300 Hw         24.572727    5.272727   13.200000  H         1 MOL        0.4238 ****
2301 Ow         26.545455    8.363636   14.772727  O         1 MOL       -0.8476 ****
2302 Hw         26.963636    7.600000   14.509091  H         1 MOL        0.4238 ****
2303 Hw         26.036364    8.672727   14.090909  H         1 MOL        0.4238 ****
2304 Ow         26.709091    4.000000   11.772727  O         1 MOL       -0.8476 ****
2305 Hw         26.009091    4.309091   12.263636  H         1 MOL        0.4238 ****
2306 Hw         26.400000    3.536364   11.054545  H         1 MOL        0.4238 ****
2307 Ow         18.390909    7.645455    7.654545  O         1 MOL       -0.8476 ****
2308 Hw         19.290909    7.536364    7.736364  H         1 MOL        0.4238 ****
2309 Hw         18.172727    8.509091    7.845455  H         1 MOL        0.4238 ****
2310 Ow         18.881818   16.827273   14.763636  O         1 MOL       -0.8476 ****
2311 Hw         18.790909   16.690909   15.663636  H         1 MOL        0.4238 ****
2312 Hw         18.100000   17.154545   14.436364  H         1 MOL        0.4238 ****
2313 Ow         22.700000    2.054545    8.527273  O         1 MOL       -0.8476 ****
2314 Hw         22.654545    2.009091    9.436364  H         1 MOL        0.4238 ****
2315 Hw         22.718182    2.927273    8.263636  H         1 MOL        0.4238 ****
2316 Ow         20.890909   16.645455    8.236364  O         1 MOL       -0.8476 ****
2317 Hw         21.345455   15.863636    8.290909  H         1 MOL        0.4238 ****
2318 Hw         21.481818   17.345455    8.209091  H         1 MOL        0.4238 ****
2319 Ow         28.854545   14.363636   14.172727  O         1 MOL       -0.8476 ****
2320 Hw         28.909091   13.663636   14.754545  H         1 MOL        0.4238 ****
2321 Hw         28.381818   14.127273   13.445455  H         1 MOL        0.4238 ****
2322 Ow         21.890909   11.781818   16.181818  O         1 MOL       -0.8476 ****
2323 Hw         21.436364   11.790909   15.400000  H         1 MOL        0.4238 ****
2324 Hw         21.318182   11.618182   16.872727  H         1 MOL        0.4238 ****
2325 Ow         19.963636   16.500000   11.763636  O         1 MOL       -0.8476 ****
2326 Hw         20.481818   15.909091   12.218182  H         1 MOL        0.4238 ****
2327 Hw         19.818182   16.200000   10.918182  H         1 MOL        0.4238 ****
2328 Ow         26.245455   15.709091    8.700000  O         1 MOL       -0.8476 ****
2329 Hw         26.972727   15.190909    8.890909  H         1 MOL        0.4238 ****
2330 Hw         25.800000   15.345455    8.000000  H         1 MOL        0.4238 ****
2331 Ow         25.772727   14.036364   11.345455  O         1 MOL       -0.8476 ****
2332 Hw         25.563636   13.809091   10.490909  H         1 MOL        0.4238 ****
2333 Hw         26.327273   13.409091   11.700000  H         1 MOL        0.4238 ****
2334 Ow         26.081818    4.845455    8.654545  O         1 MOL       -0.8476 ****
2335 Hw         25.854545    4.763636    7.781818  H         1 MOL        0.4238 ****
2336 Hw         26.518182    4.100000    8.936364  H         1 MOL        0.4238 ****
2337 Ow         28.854545   14.545455    7.690909  O         1 MOL       -0.8476 ****
2338 Hw         29.045455   15.218182    7.100000  H         1 MOL        0.4238 ****
2339 Hw         29.472727   14.545455    8.354545  H         1 MOL        0.4238 ****
2340 Ow         21.872727   10.745455    7.218182  O         1 MOL       -0.8476 ****
2341 Hw         21.227273   10.500000    7.809091  H         1 MOL        0.4238 ****
2342 Hw         21.636364   10.490909    6.372727  H         1 MOL        0.4238 ****
2343 Ow         29.254545   16.609091    5.854545  O         1 MOL       -0.8476 ****
2344 Hw         29.654545   17.190909    5.272727  H         1 MOL        0.4238 ****
2345 Hw         28.800000   17.081818    6.490909  H         1 MOL        0.4238 ****
2346 Ow         22.800000    2.290909   10.909091  O         1 MOL       -0.8476 ****
2347 Hw         23.145455    1.527273   11.245455  H         1 MOL        0.4238 ****
2348 Hw         22.000000    2.463636   11.309091  H         1 MOL        0.4238 ****
2349 Ow         25.572727    4.400000    6.318182  O         1 MOL       -0.8476 ****
2350 Hw         25.281818    5.054545    5.754545  H         1 MOL        0.4238 ****
2351 Hw         25.790909    3.663636    5.836364  H         1 MOL        0.4238 ****
2352 Ow         26.945455    0.627273    7.327273  O         1 MOL       -0.8476 ****
2353 Hw         26.290909    0.672727    6.700000  H         1 MOL        0.4238 ****
2354 Hw         26.727273    0.000000    7.954545  H         1 MOL        0.4238 ****
2355 Ow         27.372727   12.518182   12.663636  O         1 MOL       -0.8476 ****
2356 Hw         26.645455   12.309091   13.163636  H         1 MOL        0.4238 ****
2357 Hw         28.127273   12.281818   13.109091  H         1 MOL        0.4238 ****
2358 Ow         27.800000   11.136364   10.481818  O         1 MOL       -0.8476 ****
2359 Hw         27.436364   11.536364   11.218182  H         1 MOL        0.4238 ****
2360 Hw         27.427273   11.472727    9.727273  H         1 MOL        0.4238 ****
2361 Ow         26.018182    1.081818   13.227273  O         1 MOL       -0.8476 ****
2362 Hw         26.245455    0.900000   12.363636  H         1 MOL        0.4238 ****
2363 Hw         26.672727    1.590909   13.609091  H         1 MOL        0.4238 ****
2364 Ow         26.609091   10.418182   16.109091  O         1 MOL       -0.8476 ****
2365 Hw         25.709091   10.472727   16.200000  H         1 MOL        0.4238 ****
2366 Hw         26.818182    9.690909   15.600000  H         1 MOL        0.4238 ****
2367 Ow         21.427273    7.663636   11.854545  O         1 MOL       -0.8476 ****
2368 Hw         22.209091    7.772727   12.309091  H         1 MOL        0.4238 ****
2369 Hw         21.045455    6.872727   12.100000  H         1 MOL        0.4238 ****
2370 Ow         21.036364   10.272727    5.036364  O         1 MOL       -0.8476 ****
2371 Hw         20.972727   11.027273    4.527273  H         1 MOL        0.4238 ****
2372 Hw         21.072727    9.545455    4.490909  H         1 MOL        0.4238 ****
2373 Ow         22.845455    5.154545    8.345455  O         1 MOL       -0.8476 ****
2374 Hw         22.954545    5.754545    7.672727  H         1 MOL        0.4238 ****
2375 Hw         23.263636    5.463636    9.100000  H         1 MOL        0.4238 ****
2376 Ow         29.263636   13.409091   10.863636  O         1 MOL       -0.8476 ****
2377 Hw         29.690909   13.527273   11.654545  H         1 MOL        0.4238 ****
2378 Hw         28.663636   12.736364   10.945455  H         1 MOL        0.4238 ****
2379 Ow         21.354545    7.100000   15.009091  O         1 MOL       -0.8476 ****
2380 Hw         21.972727    7.600000   14.581818  H         1 MOL        0.4238 ****
2381 Hw         21.718182    6.300000   15.254545  H         1 MOL        0.4238 ****
2382 Ow         22.909091    8.181818    9.836364  O         1 MOL       -0.8476 ****
2383 Hw         23.309091    8.990909    9.754545  H         1 MOL        0.4238 ****
2384 Hw         22.336364    8.181818   10.536364  H         1 MOL        0.4238 ****
2385 Ow         30.063636    8.109091    9.981818  O         1 MOL       -0.8476 ****
2386 Hw         29.381818    8.109091    9.381818  H         1 MOL        0.4238 ****
2387 Hw         30.400000    7.272727   10.063636  H         1 MOL        0.4238 ****
2388 Ow         18.036364   12.181818   12.136364  O         1 MOL       -0.8476 ****
2389 Hw         18.518182   11.736364   12.754545  H         1 MOL        0.4238 ****
2390 Hw         18.236364   13.072727   12.181818  H         1 MOL        0.4238 ****
2391 Ow         24.354545    6.036364   10.154545  O         1 MOL       -0.8476 ****
2392 Hw         24.890909    5.800000    9.463636  H         1 MOL        0.4238 ****
2393 Hw         24.100000    6.909091   10.054545  H         1 MOL        0.4238 ****
2394 Ow         20.490909    0.845455    6.100000  O         1 MOL       -0.8476 ****
2395 Hw         20.390909    1.700000    6.400000  H         1 MOL        0.4238 ****
2396 Hw         20.445455    0.272727    6.800000  H         1 MOL        0.4238 ****
2397 Ow         27.000000    7.236364    9.263636  O         1 MOL       -0.8476 ****
2398 Hw         27.136364    7.427273   10.136364  H         1 MOL        0.4238 ****
2399 Hw         26.727273    6.372727    9.181818  H         1 MOL        0.4238 ****
2400 Ow         20.600000    7.636364    9.109091  O         1 MOL       -0.8476 ****
2401 Hw         21.445455    7.963636    9.154545  H         1 MOL        0.4238 ****
2402 Hw         20.545455    6.863636    9.581818  H         1 MOL        0.4238 ****
2403 Ow         20.781818    4.900000    9.627273  O         1 MOL       -0.8476 ****
2404 Hw         20.309091    4.145455    9.472727  H         1 MOL        0.4238 ****
2405 Hw         21.481818    4.945455    9.045455  H         1 MOL        0.4238 ****
2406 Ow         28.245455    2.154545   13.909091  O         1 MOL       -0.8476 ****
2407 Hw         28.245455    2.736364   14.609091  H         1 MOL        0.4238 ****
2408 Hw         28.500000    2.590909   13.154545  H         1 MOL        0.4238 ****
2409 Ow         18.500000   16.645455    8.909091  O         1 MOL       -0.8476 ****
2410 Hw         18.118182   15.863636    8.663636  H         1 MOL        0.4238 ****
2411 Hw         19.354545   16.672727    8.600000  H         1 MOL        0.4238 ****
2412 Ow         22.281818   14.527273    8.754545  O         1 MOL       -0.8476 ****
2413 Hw         22.881818   15.200000    8.836364  H         1 MOL        0.4238 ****
2414 Hw         22.681818   13.809091    8.372727  H         1 MOL        0.4238 ****
2415 Ow         26.809091    7.509091   11.736364  O         1 MOL       -0.8476 ****
2416 Hw         27.181818    7.218182   12.518182  H         1 MOL        0.4238 ****
2417 Hw         25.936364    7.263636   11.709091  H         1 MOL        0.4238 ****
2418 Ow         18.063636    5.218182   10.609091  O         1 MOL       -0.8476 ****
2419 Hw         18.836364    4.918182   10.236364  H         1 MOL        0.4238 ****
2420 Hw         18.181818    5.354545   11.500000  H         1 MOL        0.4238 ****
2421 Ow         30.145455    8.909091   15.572727  O         1 MOL       -0.8476 ****
2422 Hw         30.500000    9.718182   15.754545  H         1 MOL        0.4238 ****
2423 Hw         30.236364    8.727273   14.690909  H         1 MOL        0.4238 ****
2424 Ow         23.800000    4.490909   12.018182  O         1 MOL       -0.8476 ****
2425 Hw         23.490909    3.681818   11.745455  H         1 MOL        0.4238 ****
2426 Hw         24.036364    4.981818   11.290909  H         1 MOL        0.4238 ****
2427 Ow         26.154545   15.527273   13.800000  O         1 MOL       -0.8476 ****
2428 Hw         25.936364   15.363636   12.936364  H         1 MOL        0.4238 ****
2429 Hw         26.427273   16.381818   13.890909  H         1 MOL        0.4238 ****
2430 Ow         19.145455   10.609091   13.809091  O         1 MOL       -0.8476 ****
2431 Hw         19.345455   10.054545   14.500000  H         1 MOL        0.4238 ****
2432 Hw         19.236364   10.163636   13.027273  H         1 MOL        0.4238 ****
2433 Ow         29.945455    9.900000   11.700000  O         1 MOL       -0.8476 ****
2434 Hw         30.163636    9.327273   11.027273  H         1 MOL        0.4238 ****
2435 Hw         29.127273   10.263636   11.536364  H         1 MOL        0.4238 ****
2436 Ow         18.454545   11.709091    9.772727  O         1 MOL       -0.8476 ****
2437 Hw         18.409091   11.700000   10.681818  H         1 MOL        0.4238 ****
2438 Hw         17.700000   11.336364    9.427273  H         1 MOL        0.4238 ****
2439 Ow         23.954545   15.381818   16.081818  O         1 MOL       -0.8476 ****
2440 Hw         23.445455   16.118182   16.163636  H         1 MOL        0.4238 ****
2441 Hw         24.427273   15.418182   15.300000  H         1 MOL        0.4238 ****
2442 Ow         25.245455   11.845455   13.409091  O         1 MOL       -0.8476 ****
2443 Hw         25.200000   12.145455   14.272727  H         1 MOL        0.4238 ****
2444 Hw         24.463636   12.018182   12.990909  H         1 MOL        0.4238 ****
2445 Ow         20.090909    3.236364    7.027273  O         1 MOL       -0.8476 ****
2446 Hw         19.372727    3.700000    6.718182  H         1 MOL        0.4238 ****
2447 Hw         20.009091    3.100000    7.918182  H         1 MOL        0.4238 ****
2448 Ow         25.172727    9.381818   12.954545  O         1 MOL       -0.8476 ****
2449 Hw         25.536364    9.372727   12.118182  H         1 MOL        0.4238 ****
2450 Hw         25.263636   10.218182   13.318182  H         1 MOL        0.4238 ****
2451 Ow         21.081818   11.981818   14.027273  O         1 MOL       -0.8476 ****
2452 Hw         20.963636   12.827273   13.718182  H         1 MOL        0.4238 ****
2453 Hw         20.318182   11.509091   13.909091  H         1 MOL        0.4238 ****
2454 Ow         27.145455   10.254545    6.809091  O         1 MOL       -0.8476 ****
2455 Hw         26.509091    9.827273    7.300000  H         1 MOL        0.4238 ****
2456 Hw         27.681818    9.636364    6.418182  H         1 MOL        0.4238 ****
2457 Ow         26.918182    2.418182    9.309091  O         1 MOL       -0.8476 ****
2458 Hw         26.845455    2.090909    8.463636  H         1 MOL        0.4238 ****
2459 Hw         26.900000    1.727273    9.900000  H         1 MOL        0.4238 ****
2460 Ow         23.272727    7.927273   13.490909  O         1 MOL       -0.8476 ****
2461 Hw         23.781818    8.663636   13.336364  H         1 MOL        0.4238 ****
2462 Hw         23.809091    7.200000   13.518182  H         1 MOL        0.4238 ****
2463 Ow         23.100000    7.045455    6.409091  O         1 MOL       -0.8476 ****
2464 Hw         23.554545    7.818182    6.236364  H         1 MOL        0.4238 ****
2465 Hw         22.300000    7.063636    5.972727  H         1 MOL        0.4238 ****
2466 Ow         25.509091    8.963636    8.309091  O         1 MOL       -0.8476 ****
2467 Hw         26.000000    8.336364    8.745455  H         1 MOL        0.4238 ****
2468 Hw         25.218182    9.590909    8.909091  H         1 MOL        0.4238 ****
2469 Ow         17.690909   14.536364    8.218182  O         1 MOL       -0.8476 ****
2470 Hw         17.045455   14.427273    7.581818  H         1 MOL        0.4238 ****
2471 Hw         17.700000   13.818182    8.763636  H         1 MOL        0.4238 ****
2472 Ow         23.809091   12.918182   15.245455  O         1 MOL       -0.8476 ****
2473 Hw         23.100000   12.463636   15.590909  H         1 MOL        0.4238 ****
2474 Hw         23.781818   13.781818   15.527273  H         1 MOL        0.4238 ****
2475 Ow         21.590909    4.127273    5.209091  O         1 MOL       -0.8476 ****
2476 Hw         21.863636    3.472727    4.645455  H         1 MOL        0.4238 ****
2477 Hw         21.236364    3.763636    5.963636  H         1 MOL        0.4238 ****
2478 Ow         20.581818    5.245455   12.118182  O         1 MOL       -0.8476 ****
2479 Hw         20.927273    4.709091   12.772727  H         1 MOL        0.4238 ****
2480 Hw         20.945455    5.009091   11.318182  H         1 MOL        0.4238 ****
2481 Ow         25.081818   14.690909    6.727273  O         1 MOL       -0.8476 ****
2482 Hw         25.372727   14.781818    5.872727  H         1 MOL        0.4238 ****
2483 Hw         24.363636   14.127273    6.745455  H         1 MOL        0.4238 ****
2484 Ow         26.800000   17.509091   10.972727  O         1 MOL       -0.8476 ****
2485 Hw         26.227273   16.854545   10.690909  H         1 MOL        0.4238 ****
2486 Hw         27.645455   17.181818   10.972727  H         1 MOL        0.4238 ****
2487 Ow         23.318182   14.518182   12.154545  O         1 MOL       -0.8476 ****
2488 Hw         23.272727   15.263636   12.672727  H         1 MOL        0.4238 ****
2489 Hw         24.127273   14.490909   11.745455  H         1 MOL        0.4238 ****
2490 Ow          5.945455   28.790909   11.072727  O         1 MOL       -0.8476 ****
2491 Hw          5.100000   28.727273   10.736364  H         1 MOL        0.4238 ****
2492 Hw          6.045455   29.600000   11.472727  H         1 MOL        0.4238 ****
2493 Ow         14.909091   30.936364    6.872727  O         1 MOL       -0.8476 ****
2494 Hw         14.390909   30.790909    7.609091  H         1 MOL        0.4238 ****
2495 Hw         14.372727   31.027273    6.145455  H         1 MOL        0.4238 ****
2496 Ow         11.090909   23.590909    7.000000  O         1 MOL       -0.8476 ****
2497 Hw         11.609091   24.300000    6.772727  H         1 MOL        0.4238 ****
2498 Hw         10.545455   23.827273    7.690909  H         1 MOL        0.4238 ****
2499 Ow          7.754545   27.600000    9.781818  O         1 MOL       -0.8476 ****
2500 Hw          7.045455   27.754545   10.327273  H         1 MOL        0.4238 ****
2501 Hw          8.063636   28.390909    9.454545  H         1 MOL        0.4238 ****
2502 Ow          8.500000   24.454545   17.054545  O         1 MOL       -0.8476 ****
2503 Hw          8.463636   25.145455   17.645455  H         1 MOL        0.4238 ****
2504 Hw          8.700000   24.781818   16.227273  H         1 MOL        0.4238 ****
2505 Ow          7.000000   26.400000    6.527273  O         1 MOL       -0.8476 ****
2506 Hw          7.627273   26.254545    7.163636  H         1 MOL        0.4238 ****
2507 Hw          6.336364   26.918182    6.872727  H         1 MOL        0.4238 ****
2508 Ow          3.818182   30.245455   10.127273  O         1 MOL       -0.8476 ****
2509 Hw          3.109091   29.963636    9.645455  H         1 MOL        0.4238 ****
2510 Hw          4.345455   30.772727    9.609091  H         1 MOL        0.4238 ****
2511 Ow         14.045455   30.881818   12.654545  O         1 MOL       -0.8476 ****
2512 Hw         14.263636   31.736364   12.890909  H         1 MOL        0.4238 ****
2513 Hw         13.900000   30.390909   13.400000  H         1 MOL        0.4238 ****
2514 Ow          4.754545   20.763636   14.109091  O         1 MOL       -0.8476 ****
2515 Hw          5.500000   20.254545   14.190909  H         1 MOL        0.4238 ****
2516 Hw          4.018182   20.236364   14.145455  H         1 MOL        0.4238 ****
2517 Ow         15.345455   21.263636    7.181818  O         1 MOL       -0.8476 ****
2518 Hw         14.672727   21.681818    6.727273  H         1 MOL        0.4238 ****
2519 Hw         15.809091   21.881818    7.663636  H         1 MOL        0.4238 ****
2520 Ow         11.018182   29.390909   15.845455  O         1 MOL       -0.8476 ****
2521 Hw         11.445455   29.390909   16.645455  H         1 MOL        0.4238 ****
2522 Hw         10.581818   28.600000   15.745455  H         1 MOL        0.4238 ****
2523 Ow          2.863636   30.236364    5.372727  O         1 MOL       -0.8476 ****
2524 Hw          2.627273   31.109091    5.372727  H         1 MOL        0.4238 ****
2525 Hw          2.218182   29.745455    5.781818  H         1 MOL        0.4238 ****
2526 Ow          2.954545   27.118182    8.536364  O         1 MOL       -0.8476 ****
2527 Hw          3.081818   26.354545    9.009091  H         1 MOL        0.4238 ****
2528 Hw          2.454545   27.700000    9.036364  H         1 MOL        0.4238 ****
2529 Ow          1.881818   23.045455    5.600000  O         1 MOL       -0.8476 ****
2530 Hw          1.472727   22.245455    5.754545  H         1 MOL        0.4238 ****
2531 Hw          1.872727   23.536364    6.363636  H         1 MOL        0.4238 ****
2532 Ow         16.127273   25.581818    6.045455  O         1 MOL       -0.8476 ****
2533 Hw         16.990909   25.318182    6.118182  H         1 MOL        0.4238 ****
2534 Hw         16.054545   26.172727    5.363636  H         1 MOL        0.4238 ****
2535 Ow          1.800000   23.900000   15.000000  O         1 MOL       -0.8476 ****
2536 Hw          2.600000   23.781818   15.409091  H         1 MOL        0.4238 ****
2537 Hw          1.681818   24.781818   14.800000  H         1 MOL        0.4238 ****
2538 Ow          6.345455   29.609091    7.081818  O         1 MOL       -0.8476 ****
2539 Hw          5.900000   28.818182    7.163636  H         1 MOL        0.4238 ****
2540 Hw          6.136364   30.000000    6.290909  H         1 MOL        0.4238 ****
2541 Ow          8.127273   34.163636    5.045455  O         1 MOL       -0.8476 ****
2542 Hw          8.490909   34.990909    4.963636  H         1 MOL        0.4238 ****
2543 Hw          7.218182   34.236364    5.100000  H         1 MOL        0.4238 ****
2544 Ow         11.563636   33.490909   15.172727  O         1 MOL       -0.8476 ****
2545 Hw         11.781818   34.036364   14.481818  H         1 MOL        0.4238 ****
2546 Hw         11.627273   32.627273   14.900000  H         1 MOL        0.4238 ****
2547 Ow         12.418182   20.336364    9.063636  O         1 MOL       -0.8476 ****
2548 Hw         11.636364   19.881818    8.945455  H         1 MOL        0.4238 ****
2549 Hw         12.981818   19.845455    9.572727  H         1 MOL        0.4238 ****
2550 Ow          8.109091   22.700000   13.800000  O         1 MOL       -0.8476 ****
2551 Hw          7.681818   22.672727   14.609091  H         1 MOL        0.4238 ****
2552 Hw          7.645455   22.200000   13.200000  H         1 MOL        0.4238 ****
2553 Ow          9.781818   20.927273   11.772727  O         1 MOL       -0.8476 ****
2554 Hw          9.081818   21.236364   12.263636  H         1 MOL        0.4238 ****
2555 Hw          9.472727   20.463636   11.054545  H         1 MOL        0.4238 ****
2556 Ow          1.463636   24.572727    7.654545  O         1 MOL       -0.8476 ****
2557 Hw          2.363636   24.463636    7.736364  H         1 MOL        0.4238 ****
2558 Hw          1.245455   25.436364    7.845455  H         1 MOL        0.4238 ****
2559 Ow         13.154545   27.600000    5.436364  O         1 MOL       -0.8476 ****
2560 Hw         13.909091   27.336364    5.000000  H         1 MOL        0.4238 ****
2561 Hw         12.709091   28.209091    4.927273  H         1 MOL        0.4238 ****
2562 Ow          5.772727   18.981818    8.527273  O         1 MOL       -0.8476 ****
2563 Hw          5.727273   18.936364    9.436364  H         1 MOL        0.4238 ****
2564 Hw          5.790909   19.854545    8.263636  H         1 MOL        0.4238 ****
2565 Ow         17.090909   26.890909    8.418182  O         1 MOL       -0.8476 ****
2566 Hw         16.527273   26.754545    7.727273  H         1 MOL        0.4238 ****
2567 Hw         16.618182   26.990909    9.190909  H         1 MOL        0.4238 ****
2568 Ow         11.927273   31.290909   14.172727  O         1 MOL       -0.8476 ****
2569 Hw         11.981818   30.590909   14.754545  H         1 MOL        0.4238 ****
2570 Hw         11.454545   31.054545   13.445455  H         1 MOL        0.4238 ****
2571 Ow         14.027273   23.881818    7.100000  O         1 MOL       -0.8476 ****
2572 Hw         13.981818   23.290909    7.781818  H         1 MOL        0.4238 ****
2573 Hw         14.754545   24.418182    7.218182  H         1 MOL        0.4238 ****
2574 Ow          2.609091   19.790909   14.100000  O         1 MOL       -0.8476 ****
2575 Hw          1.881818   20.336364   13.981818  H         1 MOL        0.4238 ****
2576 Hw          2.518182   19.345455   14.881818  H         1 MOL        0.4238 ****
2577 Ow          3.036364   33.427273   11.763636  O         1 MOL       -0.8476 ****
2578 Hw          3.554545   32.836364   12.218182  H         1 MOL        0.4238 ****
2579 Hw          2.890909   33.127273   10.918182  H         1 MOL        0.4238 ****
2580 Ow          9.318182   32.636364    8.700000  O         1 MOL       -0.8476 ****
2581 Hw         10.045455   32.118182    8.890909  H         1 MOL        0.4238 ****
2582 Hw          8.872727   32.272727    8.000000  H         1 MOL        0.4238 ****
2583 Ow          8.845455   30.963636   11.345455  O         1 MOL       -0.8476 ****
2584 Hw          8.636364   30.736364   10.490909  H         1 MOL        0.4238 ****
2585 Hw          9.400000   30.336364   11.700000  H         1 MOL        0.4238 ****
2586 Ow         13.054545   22.563636   13.509091  O         1 MOL       -0.8476 ****
2587 Hw         13.309091   22.172727   14.281818  H         1 MOL        0.4238 ****
2588 Hw         13.281818   23.436364   13.518182  H         1 MOL        0.4238 ****
2589 Ow          8.072727   29.945455    8.881818  O         1 MOL       -0.8476 ****
2590 Hw          8.890909   30.072727    8.500000  H         1 MOL        0.4238 ****
2591 Hw          7.427273   29.963636    8.236364  H         1 MOL        0.4238 ****
2592 Ow          5.672727   17.781818    5.136364  O         1 MOL       -0.8476 ****
2593 Hw          4.936364   17.790909    5.663636  H         1 MOL        0.4238 ****
2594 Hw          5.700000   18.536364    4.636364  H         1 MOL        0.4238 ****
2595 Ow         10.554545   23.409091   13.790909  O         1 MOL       -0.8476 ****
2596 Hw          9.827273   22.854545   13.818182  H         1 MOL        0.4238 ****
2597 Hw         11.290909   22.927273   13.572727  H         1 MOL        0.4238 ****
2598 Ow         11.927273   31.472727    7.690909  O         1 MOL       -0.8476 ****
2599 Hw         12.118182   32.145455    7.100000  H         1 MOL        0.4238 ****
2600 Hw         12.545455   31.472727    8.354545  H         1 MOL        0.4238 ****
2601 Ow          4.945455   27.672727    7.218182  O         1 MOL       -0.8476 ****
2602 Hw          4.300000   27.427273    7.809091  H         1 MOL        0.4238 ****
2603 Hw          4.709091   27.418182    6.372727  H         1 MOL        0.4238 ****
2604 Ow          1.481818   22.254545   13.081818  O         1 MOL       -0.8476 ****
2605 Hw          2.318182   22.245455   12.709091  H         1 MOL        0.4238 ****
2606 Hw          1.427273   22.927273   13.690909  H         1 MOL        0.4238 ****
2607 Ow          5.872727   19.218182   10.909091  O         1 MOL       -0.8476 ****
2608 Hw          6.218182   18.454545   11.245455  H         1 MOL        0.4238 ****
2609 Hw          5.072727   19.390909   11.309091  H         1 MOL        0.4238 ****
2610 Ow          8.645455   21.327273    6.318182  O         1 MOL       -0.8476 ****
2611 Hw          8.354545   21.981818    5.754545  H         1 MOL        0.4238 ****
2612 Hw          8.863636   20.590909    5.836364  H         1 MOL        0.4238 ****
2613 Ow         10.018182   17.554545    7.327273  O         1 MOL       -0.8476 ****
2614 Hw          9.363636   17.600000    6.700000  H         1 MOL        0.4238 ****
2615 Hw          9.800000   16.927273    7.954545  H         1 MOL        0.4238 ****
2616 Ow         13.763636   27.863636    8.363636  O         1 MOL       -0.8476 ****
2617 Hw         13.263636   27.100000    8.300000  H         1 MOL        0.4238 ****
2618 Hw         14.000000   28.127273    7.527273  H         1 MOL        0.4238 ****
2619 Ow         14.100000   22.563636    9.500000  O         1 MOL       -0.8476 ****
2620 Hw         13.827273   21.700000    9.563636  H         1 MOL        0.4238 ****
2621 Hw         14.763636   22.709091   10.100000  H         1 MOL        0.4238 ****
2622 Ow         15.900000   28.836364    6.454545  O         1 MOL       -0.8476 ****
2623 Hw         16.800000   28.909091    6.581818  H         1 MOL        0.4238 ****
2624 Hw         15.490909   29.600000    6.736364  H         1 MOL        0.4238 ****
2625 Ow         16.718182   28.318182   14.918182  O         1 MOL       -0.8476 ****
2626 Hw         17.545455   27.963636   14.800000  H         1 MOL        0.4238 ****
2627 Hw         16.790909   29.190909   15.136364  H         1 MOL        0.4238 ****
2628 Ow         15.245455   32.009091   15.254545  O         1 MOL       -0.8476 ****
2629 Hw         15.490909   32.318182   14.436364  H         1 MOL        0.4238 ****
2630 Hw         15.963636   31.663636   15.672727  H         1 MOL        0.4238 ****
2631 Ow         10.872727   28.063636   10.481818  O         1 MOL       -0.8476 ****
2632 Hw         10.509091   28.463636   11.218182  H         1 MOL        0.4238 ****
2633 Hw         10.500000   28.400000    9.727273  H         1 MOL        0.4238 ****
2634 Ow         15.663636   27.190909   10.290909  O         1 MOL       -0.8476 ****
2635 Hw         15.709091   27.927273   10.827273  H         1 MOL        0.4238 ****
2636 Hw         14.881818   27.209091    9.827273  H         1 MOL        0.4238 ****
2637 Ow          4.500000   24.590909   11.854545  O         1 MOL       -0.8476 ****
2638 Hw          5.281818   24.700000   12.309091  H         1 MOL        0.4238 ****
2639 Hw          4.118182   23.800000   12.100000  H         1 MOL        0.4238 ****
2640 Ow         12.354545   20.709091   11.954545  O         1 MOL       -0.8476 ****
2641 Hw         12.545455   21.381818   12.536364  H         1 MOL        0.4238 ****
2642 Hw         11.545455   20.863636   11.563636  H         1 MOL        0.4238 ****
2643 Ow          1.354545   31.418182   12.581818  O         1 MOL       -0.8476 ****
2644 Hw          0.936364   32.163636   12.272727  H         1 MOL        0.4238 ****
2645 Hw          2.245455   31.590909   12.663636  H         1 MOL        0.4238 ****
2646 Ow          5.918182   22.081818    8.345455  O         1 MOL       -0.8476 ****
2647 Hw          6.027273   22.681818    7.672727  H         1 MOL        0.4238 ****
2648 Hw          6.336364   22.390909    9.100000  H         1 MOL        0.4238 ****
2649 Ow         12.336364   30.336364   10.863636  O         1 MOL       -0.8476 ****
2650 Hw         12.763636   30.454545   11.654545  H         1 MOL        0.4238 ****
2651 Hw         11.736364   29.663636   10.945455  H         1 MOL        0.4238 ****
2652 Ow          3.990909   30.927273   12.563636  O         1 MOL       -0.8476 ****
2653 Hw          3.800000   30.527273   11.772727  H         1 MOL        0.4238 ****
2654 Hw          4.872727   31.163636   12.590909  H         1 MOL        0.4238 ****
2655 Ow          4.427273   24.027273   15.009091  O         1 MOL       -0.8476 ****
2656 Hw          5.045455   24.527273   14.581818  H         1 MOL        0.4238 ****
2657 Hw          4.790909   23.227273   15.254545  H         1 MOL        0.4238 ****
2658 Ow         15.200000   24.281818   15.663636  O         1 MOL       -0.8476 ****
2659 Hw         14.363636   24.627273   15.618182  H         1 MOL        0.4238 ****
2660 Hw         15.745455   24.709091   15.072727  H         1 MOL        0.4238 ****
2661 Ow          5.981818   25.109091    9.836364  O         1 MOL       -0.8476 ****
2662 Hw          6.381818   25.918182    9.754545  H         1 MOL        0.4238 ****
2663 Hw          5.409091   25.109091   10.536364  H         1 MOL        0.4238 ****
2664 Ow         13.136364   25.036364    9.981818  O         1 MOL       -0.8476 ****
2665 Hw         12.454545   25.036364    9.381818  H         1 MOL        0.4238 ****
2666 Hw         13.472727   24.200000   10.063636  H         1 MOL        0.4238 ****
2667 Ow          3.563636   19.136364   11.672727  O         1 MOL       -0.8476 ****
2668 Hw          3.354545   19.472727   12.490909  H         1 MOL        0.4238 ****
2669 Hw          3.290909   18.272727   11.618182  H         1 MOL        0.4238 ****
2670 Ow          1.109091   29.109091   12.136364  O         1 MOL       -0.8476 ****
2671 Hw          1.590909   28.663636   12.754545  H         1 MOL        0.4238 ****
2672 Hw          1.309091   30.000000   12.181818  H         1 MOL        0.4238 ****
2673 Ow          7.427273   22.963636   10.154545  O         1 MOL       -0.8476 ****
2674 Hw          7.963636   22.727273    9.463636  H         1 MOL        0.4238 ****
2675 Hw          7.172727   23.836364   10.054545  H         1 MOL        0.4238 ****
2676 Ow          3.563636   17.772727    6.100000  O         1 MOL       -0.8476 ****
2677 Hw          3.463636   18.627273    6.400000  H         1 MOL        0.4238 ****
2678 Hw          3.518182   17.200000    6.800000  H         1 MOL        0.4238 ****
2679 Ow         10.072727   24.163636    9.263636  O         1 MOL       -0.8476 ****
2680 Hw         10.209091   24.354545   10.136364  H         1 MOL        0.4238 ****
2681 Hw          9.800000   23.300000    9.181818  H         1 MOL        0.4238 ****
2682 Ow          0.745455   31.000000   15.072727  O         1 MOL       -0.8476 ****
2683 Hw          0.872727   31.245455   14.209091  H         1 MOL        0.4238 ****
2684 Hw          1.500000   31.200000   15.554545  H         1 MOL        0.4238 ****
2685 Ow         10.481818   29.318182    8.200000  O         1 MOL       -0.8476 ****
2686 Hw         10.545455   28.554545    7.700000  H         1 MOL        0.4238 ****
2687 Hw         11.045455   29.945455    7.872727  H         1 MOL        0.4238 ****
2688 Ow          3.672727   24.563636    9.109091  O         1 MOL       -0.8476 ****
2689 Hw          4.518182   24.890909    9.154545  H         1 MOL        0.4238 ****
2690 Hw          3.618182   23.790909    9.581818  H         1 MOL        0.4238 ****
2691 Ow          3.854545   21.827273    9.627273  O         1 MOL       -0.8476 ****
2692 Hw          3.381818   21.072727    9.472727  H         1 MOL        0.4238 ****
2693 Hw          4.554545   21.872727    9.045455  H         1 MOL        0.4238 ****
2694 Ow         11.118182   20.654545   15.736364  O         1 MOL       -0.8476 ****
2695 Hw         10.709091   21.227273   16.318182  H         1 MOL        0.4238 ****
2696 Hw         11.963636   20.936364   15.581818  H         1 MOL        0.4238 ****
2697 Ow          1.572727   33.572727    8.909091  O         1 MOL       -0.8476 ****
2698 Hw          1.190909   32.790909    8.663636  H         1 MOL        0.4238 ****
2699 Hw          2.427273   33.600000    8.600000  H         1 MOL        0.4238 ****
2700 Ow          5.354545   31.454545    8.754545  O         1 MOL       -0.8476 ****
2701 Hw          5.954545   32.127273    8.836364  H         1 MOL        0.4238 ****
2702 Hw          5.754545   30.736364    8.372727  H         1 MOL        0.4238 ****
2703 Ow         15.836364   22.690909   11.445455  O         1 MOL       -0.8476 ****
2704 Hw         15.490909   22.063636   12.009091  H         1 MOL        0.4238 ****
2705 Hw         16.581818   22.363636   11.045455  H         1 MOL        0.4238 ****
2706 Ow          9.227273   32.454545   13.800000  O         1 MOL       -0.8476 ****
2707 Hw          9.009091   32.290909   12.936364  H         1 MOL        0.4238 ****
2708 Hw          9.500000   33.309091   13.890909  H         1 MOL        0.4238 ****
2709 Ow          2.218182   27.536364   13.809091  O         1 MOL       -0.8476 ****
2710 Hw          2.418182   26.981818   14.500000  H         1 MOL        0.4238 ****
2711 Hw          2.309091   27.090909   13.027273  H         1 MOL        0.4238 ****
2712 Ow         13.018182   26.827273   11.700000  O         1 MOL       -0.8476 ****
2713 Hw         13.236364   26.254545   11.027273  H         1 MOL        0.4238 ****
2714 Hw         12.200000   27.190909   11.536364  H         1 MOL        0.4238 ****
2715 Ow         16.763636   33.081818   10.972727  O         1 MOL       -0.8476 ****
2716 Hw         17.318182   33.354545   10.309091  H         1 MOL        0.4238 ****
2717 Hw         16.418182   32.272727   10.772727  H         1 MOL        0.4238 ****
2718 Ow         16.463636   18.427273    5.236364  O         1 MOL       -0.8476 ****
2719 Hw         17.127273   18.272727    4.627273  H         1 MOL        0.4238 ****
2720 Hw         16.181818   17.636364    5.581818  H         1 MOL        0.4238 ****
2721 Ow          8.318182   28.772727   13.409091  O         1 MOL       -0.8476 ****
2722 Hw          8.272727   29.072727   14.272727  H         1 MOL        0.4238 ****
2723 Hw          7.536364   28.945455   12.990909  H         1 MOL        0.4238 ****
2724 Ow         15.772727   32.836364   13.154545  O         1 MOL       -0.8476 ****
2725 Hw         16.254545   32.927273   12.390909  H         1 MOL        0.4238 ****
2726 Hw         15.527273   33.654545   13.463636  H         1 MOL        0.4238 ****
2727 Ow          3.163636   20.163636    7.027273  O         1 MOL       -0.8476 ****
2728 Hw          2.445455   20.627273    6.718182  H         1 MOL        0.4238 ****
2729 Hw          3.081818   20.027273    7.918182  H         1 MOL        0.4238 ****
2730 Ow          8.245455   26.309091   12.954545  O         1 MOL       -0.8476 ****
2731 Hw          8.609091   26.300000   12.118182  H         1 MOL        0.4238 ****
2732 Hw          8.336364   27.145455   13.318182  H         1 MOL        0.4238 ****
2733 Ow          4.154545   28.909091   14.027273  O         1 MOL       -0.8476 ****
2734 Hw          4.036364   29.754545   13.718182  H         1 MOL        0.4238 ****
2735 Hw          3.390909   28.436364   13.909091  H         1 MOL        0.4238 ****
2736 Ow         15.445455   28.945455   12.200000  O         1 MOL       -0.8476 ****
2737 Hw         15.990909   28.972727   12.927273  H         1 MOL        0.4238 ****
2738 Hw         14.763636   29.527273   12.318182  H         1 MOL        0.4238 ****
2739 Ow         10.218182   27.181818    6.809091  O         1 MOL       -0.8476 ****
2740 Hw          9.581818   26.754545    7.300000  H         1 MOL        0.4238 ****
2741 Hw         10.754545   26.563636    6.418182  H         1 MOL        0.4238 ****
2742 Ow          9.990909   19.345455    9.309091  O         1 MOL       -0.8476 ****
2743 Hw          9.918182   19.018182    8.463636  H         1 MOL        0.4238 ****
2744 Hw          9.972727   18.654545    9.900000  H         1 MOL        0.4238 ****
2745 Ow         16.309091   20.700000   13.036364  O         1 MOL       -0.8476 ****
2746 Hw         16.972727   21.327273   13.072727  H         1 MOL        0.4238 ****
2747 Hw         16.563636   20.018182   12.500000  H         1 MOL        0.4238 ****
2748 Ow          6.881818   19.045455   14.018182  O         1 MOL       -0.8476 ****
2749 Hw          7.700000   18.900000   13.654545  H         1 MOL        0.4238 ****
2750 Hw          6.954545   19.090909   14.918182  H         1 MOL        0.4238 ****
2751 Ow         13.863636   24.981818   13.190909  O         1 MOL       -0.8476 ****
2752 Hw         13.345455   25.454545   12.618182  H         1 MOL        0.4238 ****
2753 Hw         14.736364   25.090909   12.972727  H         1 MOL        0.4238 ****
2754 Ow          6.345455   24.854545   13.490909  O         1 MOL       -0.8476 ****
2755 Hw          6.854545   25.590909   13.336364  H         1 MOL        0.4238 ****
2756 Hw          6.881818   24.127273   13.518182  H         1 MOL        0.4238 ****
2757 Ow         14.345455   33.263636    9.200000  O         1 MOL       -0.8476 ****
2758 Hw         14.645455   33.845455    8.572727  H         1 MOL        0.4238 ****
2759 Hw         14.945455   33.209091    9.881818  H         1 MOL        0.4238 ****
2760 Ow         13.954545   28.290909   15.327273  O         1 MOL       -0.8476 ****
2761 Hw         13.872727   28.200000   16.227273  H         1 MOL        0.4238 ****
2762 Hw         14.827273   28.227273   15.090909  H         1 MOL        0.4238 ****
2763 Ow          4.318182   33.027273   14.663636  O         1 MOL       -0.8476 ****
2764 Hw          3.490909   33.400000   14.645455  H         1 MOL        0.4238 ****
2765 Hw          4.254545   32.172727   14.954545  H         1 MOL        0.4238 ****
2766 Ow         11.909091   20.154545    4.563636  O         1 MOL       -0.8476 ****
2767 Hw         12.500000   19.481818    4.463636  H         1 MOL        0.4238 ****
2768 Hw         12.090909   20.609091    5.327273  H         1 MOL        0.4238 ****
2769 Ow          6.172727   23.972727    6.409091  O         1 MOL       -0.8476 ****
2770 Hw          6.627273   24.745455    6.236364  H         1 MOL        0.4238 ****
2771 Hw          5.372727   23.990909    5.972727  H         1 MOL        0.4238 ****
2772 Ow         16.927273   20.309091   15.409091  O         1 MOL       -0.8476 ****
2773 Hw         16.772727   20.590909   14.554545  H         1 MOL        0.4238 ****
2774 Hw         16.163636   19.972727   15.754545  H         1 MOL        0.4238 ****
2775 Ow          8.581818   25.890909    8.309091  O         1 MOL       -0.8476 ****
2776 Hw          9.072727   25.263636    8.745455  H         1 MOL        0.4238 ****
2777 Hw          8.290909   26.518182    8.909091  H         1 MOL        0.4238 ****
2778 Ow          0.763636   31.463636    8.218182  O         1 MOL       -0.8476 ****
2779 Hw          0.118182   31.354545    7.581818  H         1 MOL        0.4238 ****
2780 Hw          0.772727   30.745455    8.763636  H         1 MOL        0.4238 ****
2781 Ow          1.490909   28.472727    6.418182  O         1 MOL       -0.8476 ****
2782 Hw          1.481818   28.045455    7.218182  H         1 MOL        0.4238 ****
2783 Hw          2.236364   28.218182    5.954545  H         1 MOL        0.4238 ****
2784 Ow         17.354545   18.945455   11.636364  O         1 MOL       -0.8476 ****
2785 Hw         17.318182   18.127273   12.036364  H         1 MOL        0.4238 ****
2786 Hw         17.381818   18.845455   10.736364  H         1 MOL        0.4238 ****
2787 Ow         16.272727   30.718182   10.518182  O         1 MOL       -0.8476 ****
2788 Hw         15.427273   30.490909   10.272727  H         1 MOL        0.4238 ****
2789 Hw         16.509091   30.263636   11.263636  H         1 MOL        0.4238 ****
2790 Ow          3.654545   22.172727   12.118182  O         1 MOL       -0.8476 ****
2791 Hw          4.000000   21.636364   12.772727  H         1 MOL        0.4238 ****
2792 Hw          4.018182   21.936364   11.318182  H         1 MOL        0.4238 ****
2793 Ow         13.718182   19.145455   10.590909  O         1 MOL       -0.8476 ****
2794 Hw         14.190909   18.554545   11.090909  H         1 MOL        0.4238 ****
2795 Hw         13.272727   19.718182   11.145455  H         1 MOL        0.4238 ****
2796 Ow          6.390909   31.445455   12.154545  O         1 MOL       -0.8476 ****
2797 Hw          6.345455   32.190909   12.672727  H         1 MOL        0.4238 ****
2798 Hw          7.200000   31.418182   11.745455  H         1 MOL        0.4238 ****
2799 Ow         15.254545   19.209091    8.500000  O         1 MOL       -0.8476 ****
2800 Hw         14.490909   19.200000    8.990909  H         1 MOL        0.4238 ****
2801 Hw         15.272727   19.963636    7.990909  H         1 MOL        0.4238 ****
2802 Ow         22.872727   28.790909   11.072727  O         1 MOL       -0.8476 ****
2803 Hw         22.027273   28.727273   10.736364  H         1 MOL        0.4238 ****
2804 Hw         22.972727   29.600000   11.472727  H         1 MOL        0.4238 ****
2805 Ow         28.018182   23.590909    7.000000  O         1 MOL       -0.8476 ****
2806 Hw         28.536364   24.300000    6.772727  H         1 MOL        0.4238 ****
2807 Hw         27.472727   23.827273    7.690909  H         1 MOL        0.4238 ****
2808 Ow         24.681818   27.600000    9.781818  O         1 MOL       -0.8476 ****
2809 Hw         23.972727   27.754545   10.327273  H         1 MOL        0.4238 ****
2810 Hw         24.990909   28.390909    9.454545  H         1 MOL        0.4238 ****
2811 Ow         23.927273   26.400000    6.527273  O         1 MOL       -0.8476 ****
2812 Hw         24.554545   26.254545    7.163636  H         1 MOL        0.4238 ****
2813 Hw         23.263636   26.918182    6.872727  H         1 MOL        0.4238 ****
2814 Ow         21.681818   20.763636   14.109091  O         1 MOL       -0.8476 ****
2815 Hw         22.427273   20.254545   14.190909  H         1 MOL        0.4238 ****
2816 Hw         20.945455   20.236364   14.145455  H         1 MOL        0.4238 ****
2817 Ow         27.945455   29.390909   15.845455  O         1 MOL       -0.8476 ****
2818 Hw         28.372727   29.390909   16.645455  H         1 MOL        0.4238 ****
2819 Hw         27.509091   28.600000   15.745455  H         1 MOL        0.4238 ****
2820 Ow         19.790909   30.236364    5.372727  O         1 MOL       -0.8476 ****
2821 Hw         19.554545   31.109091    5.372727  H         1 MOL        0.4238 ****
2822 Hw         19.145455   29.745455    5.781818  H         1 MOL        0.4238 ****
2823 Ow         19.881818   27.118182    8.536364  O         1 MOL       -0.8476 ****
2824 Hw         20.009091   26.354545    9.009091  H         1 MOL        0.4238 ****
2825 Hw         19.381818   27.700000    9.036364  H         1 MOL        0.4238 ****
2826 Ow         23.336364   33.436364   13.563636  O         1 MOL       -0.8476 ****
2827 Hw         22.500000   33.281818   13.881818  H         1 MOL        0.4238 ****
2828 Hw         23.590909   34.272727   13.800000  H         1 MOL        0.4238 ****
2829 Ow         18.809091   23.045455    5.600000  O         1 MOL       -0.8476 ****
2830 Hw         18.400000   22.245455    5.754545  H         1 MOL        0.4238 ****
2831 Hw         18.800000   23.536364    6.363636  H         1 MOL        0.4238 ****
2832 Ow         18.727273   23.900000   15.000000  O         1 MOL       -0.8476 ****
2833 Hw         19.527273   23.781818   15.409091  H         1 MOL        0.4238 ****
2834 Hw         18.609091   24.781818   14.800000  H         1 MOL        0.4238 ****
2835 Ow         29.454545   28.363636   13.418182  O         1 MOL       -0.8476 ****
2836 Hw         29.790909   27.700000   12.890909  H         1 MOL        0.4238 ****
2837 Hw         29.927273   28.409091   14.190909  H         1 MOL        0.4238 ****
2838 Ow         25.054545   34.163636    5.045455  O         1 MOL       -0.8476 ****
2839 Hw         25.418182   34.990909    4.963636  H         1 MOL        0.4238 ****
2840 Hw         24.145455   34.236364    5.100000  H         1 MOL        0.4238 ****
2841 Ow         19.490909   26.072727   11.972727  O         1 MOL       -0.8476 ****
2842 Hw         20.300000   25.663636   11.845455  H         1 MOL        0.4238 ****
2843 Hw         18.827273   25.481818   11.800000  H         1 MOL        0.4238 ****
2844 Ow         29.345455   20.336364    9.063636  O         1 MOL       -0.8476 ****
2845 Hw         28.563636   19.881818    8.945455  H         1 MOL        0.4238 ****
2846 Hw         29.909091   19.845455    9.572727  H         1 MOL        0.4238 ****
2847 Ow         25.036364   22.700000   13.800000  O         1 MOL       -0.8476 ****
2848 Hw         24.609091   22.672727   14.609091  H         1 MOL        0.4238 ****
2849 Hw         24.572727   22.200000   13.200000  H         1 MOL        0.4238 ****
2850 Ow         26.545455   25.290909   14.772727  O         1 MOL       -0.8476 ****
2851 Hw         26.963636   24.527273   14.509091  H         1 MOL        0.4238 ****
2852 Hw         26.036364   25.600000   14.090909  H         1 MOL        0.4238 ****
2853 Ow         26.709091   20.927273   11.772727  O         1 MOL       -0.8476 ****
2854 Hw         26.009091   21.236364   12.263636  H         1 MOL        0.4238 ****
2855 Hw         26.400000   20.463636   11.054545  H         1 MOL        0.4238 ****
2856 Ow         18.881818   33.754545   14.763636  O         1 MOL       -0.8476 ****
2857 Hw         18.790909   33.618182   15.663636  H         1 MOL        0.4238 ****
2858 Hw         18.100000   34.081818   14.436364  H         1 MOL        0.4238 ****
2859 Ow         22.700000   18.981818    8.527273  O         1 MOL       -0.8476 ****
2860 Hw         22.654545   18.936364    9.436364  H         1 MOL        0.4238 ****
2861 Hw         22.718182   19.854545    8.263636  H         1 MOL        0.4238 ****
2862 Ow         28.854545   31.290909   14.172727  O         1 MOL       -0.8476 ****
2863 Hw         28.909091   30.590909   14.754545  H         1 MOL        0.4238 ****
2864 Hw         28.381818   31.054545   13.445455  H         1 MOL        0.4238 ****
2865 Ow         21.890909   28.709091   16.181818  O         1 MOL       -0.8476 ****
2866 Hw         21.436364   28.718182   15.400000  H         1 MOL        0.4238 ****
2867 Hw         21.318182   28.545455   16.872727  H         1 MOL        0.4238 ****
2868 Ow         19.536364   19.790909   14.100000  O         1 MOL       -0.8476 ****
2869 Hw         18.809091   20.336364   13.981818  H         1 MOL        0.4238 ****
2870 Hw         19.445455   19.345455   14.881818  H         1 MOL        0.4238 ****
2871 Ow         26.245455   32.636364    8.700000  O         1 MOL       -0.8476 ****
2872 Hw         26.972727   32.118182    8.890909  H         1 MOL        0.4238 ****
2873 Hw         25.800000   32.272727    8.000000  H         1 MOL        0.4238 ****
2874 Ow         25.772727   30.963636   11.345455  O         1 MOL       -0.8476 ****
2875 Hw         25.563636   30.736364   10.490909  H         1 MOL        0.4238 ****
2876 Hw         26.327273   30.336364   11.700000  H         1 MOL        0.4238 ****
2877 Ow         29.981818   22.563636   13.509091  O         1 MOL       -0.8476 ****
2878 Hw         30.236364   22.172727   14.281818  H         1 MOL        0.4238 ****
2879 Hw         30.209091   23.436364   13.518182  H         1 MOL        0.4238 ****
2880 Ow         25.000000   29.945455    8.881818  O         1 MOL       -0.8476 ****
2881 Hw         25.818182   30.072727    8.500000  H         1 MOL        0.4238 ****
2882 Hw         24.354545   29.963636    8.236364  H         1 MOL        0.4238 ****
2883 Ow         26.081818   21.772727    8.654545  O         1 MOL       -0.8476 ****
2884 Hw         25.854545   21.690909    7.781818  H         1 MOL        0.4238 ****
2885 Hw         26.518182   21.027273    8.936364  H         1 MOL        0.4238 ****
2886 Ow         26.200000   19.345455    4.845455  O         1 MOL       -0.8476 ****
2887 Hw         25.763636   19.718182    4.136364  H         1 MOL        0.4238 ****
2888 Hw         27.100000   19.327273    4.672727  H         1 MOL        0.4238 ****
2889 Ow         28.854545   31.472727    7.690909  O         1 MOL       -0.8476 ****
2890 Hw         29.045455   32.145455    7.100000  H         1 MOL        0.4238 ****
2891 Hw         29.472727   31.472727    8.354545  H         1 MOL        0.4238 ****
2892 Ow         21.872727   27.672727    7.218182  O         1 MOL       -0.8476 ****
2893 Hw         21.227273   27.427273    7.809091  H         1 MOL        0.4238 ****
2894 Hw         21.636364   27.418182    6.372727  H         1 MOL        0.4238 ****
2895 Ow         29.254545   33.536364    5.854545  O         1 MOL       -0.8476 ****
2896 Hw         29.654545   34.118182    5.272727  H         1 MOL        0.4238 ****
2897 Hw         28.800000   34.009091    6.490909  H         1 MOL        0.4238 ****
2898 Ow         22.800000   19.218182   10.909091  O         1 MOL       -0.8476 ****
2899 Hw         23.145455   18.454545   11.245455  H         1 MOL        0.4238 ****
2900 Hw         22.000000   19.390909   11.309091  H         1 MOL        0.4238 ****
2901 Ow         25.572727   21.327273    6.318182  O         1 MOL       -0.8476 ****
2902 Hw         25.281818   21.981818    5.754545  H         1 MOL        0.4238 ****
2903 Hw         25.790909   20.590909    5.836364  H         1 MOL        0.4238 ****
2904 Ow         26.945455   17.554545    7.327273  O         1 MOL       -0.8476 ****
2905 Hw         26.290909   17.600000    6.700000  H         1 MOL        0.4238 ****
2906 Hw         26.727273   16.927273    7.954545  H         1 MOL        0.4238 ****
2907 Ow         27.372727   29.445455   12.663636  O         1 MOL       -0.8476 ****
2908 Hw         26.645455   29.236364   13.163636  H         1 MOL        0.4238 ****
2909 Hw         28.127273   29.209091   13.109091  H         1 MOL        0.4238 ****
2910 Ow         27.800000   28.063636   10.481818  O         1 MOL       -0.8476 ****
2911 Hw         27.436364   28.463636   11.218182  H         1 MOL        0.4238 ****
2912 Hw         27.427273   28.400000    9.727273  H         1 MOL        0.4238 ****
2913 Ow         18.281818   31.418182   12.581818  O         1 MOL       -0.8476 ****
2914 Hw         17.863636   32.163636   12.272727  H         1 MOL        0.4238 ****
2915 Hw         19.172727   31.590909   12.663636  H         1 MOL        0.4238 ****
2916 Ow         22.845455   22.081818    8.345455  O         1 MOL       -0.8476 ****
2917 Hw         22.954545   22.681818    7.672727  H         1 MOL        0.4238 ****
2918 Hw         23.263636   22.390909    9.100000  H         1 MOL        0.4238 ****
2919 Ow         29.263636   30.336364   10.863636  O         1 MOL       -0.8476 ****
2920 Hw         29.690909   30.454545   11.654545  H         1 MOL        0.4238 ****
2921 Hw         28.663636   29.663636   10.945455  H         1 MOL        0.4238 ****
2922 Ow         21.354545   24.027273   15.009091  O         1 MOL       -0.8476 ****
2923 Hw         21.972727   24.527273   14.581818  H         1 MOL        0.4238 ****
2924 Hw         21.718182   23.227273   15.254545  H         1 MOL        0.4238 ****
2925 Ow         22.909091   25.109091    9.836364  O         1 MOL       -0.8476 ****
2926 Hw         23.309091   25.918182    9.754545  H         1 MOL        0.4238 ****
2927 Hw         22.336364   25.109091   10.536364  H         1 MOL        0.4238 ****
2928 Ow         30.063636   25.036364    9.981818  O         1 MOL       -0.8476 ****
2929 Hw         29.381818   25.036364    9.381818  H         1 MOL        0.4238 ****
2930 Hw         30.400000   24.200000   10.063636  H         1 MOL        0.4238 ****
2931 Ow         20.490909   19.136364   11.672727  O         1 MOL       -0.8476 ****
2932 Hw         20.281818   19.472727   12.490909  H         1 MOL        0.4238 ****
2933 Hw         20.218182   18.272727   11.618182  H         1 MOL        0.4238 ****
2934 Ow         18.036364   29.109091   12.136364  O         1 MOL       -0.8476 ****
2935 Hw         18.518182   28.663636   12.754545  H         1 MOL        0.4238 ****
2936 Hw         18.236364   30.000000   12.181818  H         1 MOL        0.4238 ****
2937 Ow         24.354545   22.963636   10.154545  O         1 MOL       -0.8476 ****
2938 Hw         24.890909   22.727273    9.463636  H         1 MOL        0.4238 ****
2939 Hw         24.100000   23.836364   10.054545  H         1 MOL        0.4238 ****
2940 Ow         20.490909   17.772727    6.100000  O         1 MOL       -0.8476 ****
2941 Hw         20.390909   18.627273    6.400000  H         1 MOL        0.4238 ****
2942 Hw         20.445455   17.200000    6.800000  H         1 MOL        0.4238 ****
2943 Ow         27.409091   29.318182    8.200000  O         1 MOL       -0.8476 ****
2944 Hw         27.472727   28.554545    7.700000  H         1 MOL        0.4238 ****
2945 Hw         27.972727   29.945455    7.872727  H         1 MOL        0.4238 ****
2946 Ow         20.600000   24.563636    9.109091  O         1 MOL       -0.8476 ****
2947 Hw         21.445455   24.890909    9.154545  H         1 MOL        0.4238 ****
2948 Hw         20.545455   23.790909    9.581818  H         1 MOL        0.4238 ****
2949 Ow         20.781818   21.827273    9.627273  O         1 MOL       -0.8476 ****
2950 Hw         20.309091   21.072727    9.472727  H         1 MOL        0.4238 ****
2951 Hw         21.481818   21.872727    9.045455  H         1 MOL        0.4238 ****
2952 Ow         28.045455   20.654545   15.736364  O         1 MOL       -0.8476 ****
2953 Hw         27.636364   21.227273   16.318182  H         1 MOL        0.4238 ****
2954 Hw         28.890909   20.936364   15.581818  H         1 MOL        0.4238 ****
2955 Ow         28.245455   19.081818   13.909091  O         1 MOL       -0.8476 ****
2956 Hw         28.245455   19.663636   14.609091  H         1 MOL        0.4238 ****
2957 Hw         28.500000   19.518182   13.154545  H         1 MOL        0.4238 ****
2958 Ow         22.281818   31.454545    8.754545  O         1 MOL       -0.8476 ****
2959 Hw         22.881818   32.127273    8.836364  H         1 MOL        0.4238 ****
2960 Hw         22.681818   30.736364    8.372727  H         1 MOL        0.4238 ****
2961 Ow         18.063636   22.145455   10.609091  O         1 MOL       -0.8476 ****
2962 Hw         18.836364   21.845455   10.236364  H         1 MOL        0.4238 ****
2963 Hw         18.181818   22.281818   11.500000  H         1 MOL        0.4238 ****
2964 Ow         30.145455   25.836364   15.572727  O         1 MOL       -0.8476 ****
2965 Hw         30.500000   26.645455   15.754545  H         1 MOL        0.4238 ****
2966 Hw         30.236364   25.654545   14.690909  H         1 MOL        0.4238 ****
2967 Ow         23.800000   21.418182   12.018182  O         1 MOL       -0.8476 ****
2968 Hw         23.490909   20.609091   11.745455  H         1 MOL        0.4238 ****
2969 Hw         24.036364   21.909091   11.290909  H         1 MOL        0.4238 ****
2970 Ow         26.154545   32.454545   13.800000  O         1 MOL       -0.8476 ****
2971 Hw         25.936364   32.290909   12.936364  H         1 MOL        0.4238 ****
2972 Hw         26.427273   33.309091   13.890909  H         1 MOL        0.4238 ****
2973 Ow         19.145455   27.536364   13.809091  O         1 MOL       -0.8476 ****
2974 Hw         19.345455   26.981818   14.500000  H         1 MOL        0.4238 ****
2975 Hw         19.236364   27.090909   13.027273  H         1 MOL        0.4238 ****
2976 Ow         29.945455   26.827273   11.700000  O         1 MOL       -0.8476 ****
2977 Hw         30.163636   26.254545   11.027273  H         1 MOL        0.4238 ****
2978 Hw         29.127273   27.190909   11.536364  H         1 MOL        0.4238 ****
2979 Ow         23.954545   32.309091   16.081818  O         1 MOL       -0.8476 ****
2980 Hw         23.445455   33.045455   16.163636  H         1 MOL        0.4238 ****
2981 Hw         24.427273   32.345455   15.300000  H         1 MOL        0.4238 ****
2982 Ow         29.336364   25.627273    6.590909  O         1 MOL       -0.8476 ****
2983 Hw         29.881818   24.890909    6.609091  H         1 MOL        0.4238 ****
2984 Hw         29.700000   26.254545    6.045455  H         1 MOL        0.4238 ****
2985 Ow         25.245455   28.772727   13.409091  O         1 MOL       -0.8476 ****
2986 Hw         25.200000   29.072727   14.272727  H         1 MOL        0.4238 ****
2987 Hw         24.463636   28.945455   12.990909  H         1 MOL        0.4238 ****
2988 Ow         20.090909   20.163636    7.027273  O         1 MOL       -0.8476 ****
2989 Hw         19.372727   20.627273    6.718182  H         1 MOL        0.4238 ****
2990 Hw         20.009091   20.027273    7.918182  H         1 MOL        0.4238 ****
2991 Ow         21.081818   28.909091   14.027273  O         1 MOL       -0.8476 ****
2992 Hw         20.963636   29.754545   13.718182  H         1 MOL        0.4238 ****
2993 Hw         20.318182   28.436364   13.909091  H         1 MOL        0.4238 ****
2994 Ow         26.918182   19.345455    9.309091  O         1 MOL       -0.8476 ****
2995 Hw         26.845455   19.018182    8.463636  H         1 MOL        0.4238 ****
2996 Hw         26.900000   18.654545    9.900000  H         1 MOL        0.4238 ****
2997 Ow         23.809091   19.045455   14.018182  O         1 MOL       -0.8476 ****
2998 Hw         24.627273   18.900000   13.654545  H         1 MOL        0.4238 ****
2999 Hw         23.881818   19.090909   14.918182  H         1 MOL        0.4238 ****
3000 Ow         23.272727   24.854545   13.490909  O         1 MOL       -0.8476 ****
3001 Hw         23.781818   25.590909   13.336364  H         1 MOL        0.4238 ****
3002 Hw         23.809091   24.127273   13.518182  H         1 MOL        0.4238 ****
3003 Ow         21.245455   33.027273   14.663636  O         1 MOL       -0.8476 ****
3004 Hw         20.418182   33.400000   14.645455  H         1 MOL        0.4238 ****
3005 Hw         21.181818   32.172727   14.954545  H         1 MOL        0.4238 ****
3006 Ow         23.100000   23.972727    6.409091  O         1 MOL       -0.8476 ****
3007 Hw         23.554545   24.745455    6.236364  H         1 MOL        0.4238 ****
3008 Hw         22.300000   23.990909    5.972727  H         1 MOL        0.4238 ****
3009 Ow         23.709091   33.472727    9.145455  O         1 MOL       -0.8476 ****
3010 Hw         23.290909   34.272727    9.027273  H         1 MOL        0.4238 ****
3011 Hw         24.609091   33.581818    9.081818  H         1 MOL        0.4238 ****
3012 Ow         25.509091   25.890909    8.309091  O         1 MOL       -0.8476 ****
3013 Hw         26.000000   25.263636    8.745455  H         1 MOL        0.4238 ****
3014 Hw         25.218182   26.518182    8.909091  H         1 MOL        0.4238 ****
3015 Ow         18.418182   28.472727    6.418182  O         1 MOL       -0.8476 ****
3016 Hw         18.409091   28.045455    7.218182  H         1 MOL        0.4238 ****
3017 Hw         19.163636   28.218182    5.954545  H         1 MOL        0.4238 ****
3018 Ow         23.809091   29.845455   15.245455  O         1 MOL       -0.8476 ****
3019 Hw         23.100000   29.390909   15.590909  H         1 MOL        0.4238 ****
3020 Hw         23.781818   30.709091   15.527273  H         1 MOL        0.4238 ****
3021 Ow         21.590909   21.054545    5.209091  O         1 MOL       -0.8476 ****
3022 Hw         21.863636   20.400000    4.645455  H         1 MOL        0.4238 ****
3023 Hw         21.236364   20.690909    5.963636  H         1 MOL        0.4238 ****
3024 Ow         20.581818   22.172727   12.118182  O         1 MOL       -0.8476 ****
3025 Hw         20.927273   21.636364   12.772727  H         1 MOL        0.4238 ****
3026 Hw         20.945455   21.936364   11.318182  H         1 MOL        0.4238 ****
3027 Ow         23.318182   31.445455   12.154545  O         1 MOL       -0.8476 ****
3028 Hw         23.272727   32.190909   12.672727  H         1 MOL        0.4238 ****
3029 Hw         24.127273   31.418182   11.745455  H         1 MOL        0.4238 ****
3030 Ow          9.090909   34.937455   13.227273  O         1 MOL       -0.8476 ****
3031 Hw          9.318182   34.755636   12.363636  H         1 MOL        0.4238 ****
3032 Hw          9.745455   35.446545   13.609091  H         1 MOL        0.4238 ****
3033 Ow          2.818182    2.772727   30.326364  O         1 MOL       -0.8476 ****
3034 Hw          3.136364    2.618182   31.162727  H         1 MOL        0.4238 ****
3035 Hw          2.018182    2.363636   30.217273  H         1 MOL        0.4238 ****
3036 Ow          0.945455    3.618182   27.153636  O         1 MOL       -0.8476 ****
3037 Hw          0.200000    4.009091   27.508182  H         1 MOL        0.4238 ****
3038 Hw          0.690909    2.954545   26.580909  H         1 MOL        0.4238 ****
3039 Ow          5.945455   11.863636   31.862727  O         1 MOL       -0.8476 ****
3040 Hw          5.100000   11.800000   31.526364  H         1 MOL        0.4238 ****
3041 Hw          6.045455   12.672727   32.262727  H         1 MOL        0.4238 ****
3042 Ow         16.618182    5.890909   29.053636  O         1 MOL       -0.8476 ****
3043 Hw         16.918182    6.745455   29.053636  H         1 MOL        0.4238 ****
3044 Hw         17.081818    5.400000   29.653636  H         1 MOL        0.4238 ****
3045 Ow          7.754545   10.672727   30.571818  O         1 MOL       -0.8476 ****
3046 Hw          7.045455   10.827273   31.117273  H         1 MOL        0.4238 ****
3047 Hw          8.063636   11.463636   30.244545  H         1 MOL        0.4238 ****
3048 Ow          7.000000    9.472727   27.317273  O         1 MOL       -0.8476 ****
3049 Hw          7.627273    9.327273   27.953636  H         1 MOL        0.4238 ****
3050 Hw          6.336364    9.990909   27.662727  H         1 MOL        0.4238 ****
3051 Ow          2.954545   10.190909   29.326364  O         1 MOL       -0.8476 ****
3052 Hw          3.081818    9.427273   29.799091  H         1 MOL        0.4238 ****
3053 Hw          2.454545   10.772727   29.826364  H         1 MOL        0.4238 ****
3054 Ow         15.263636    1.309091   34.726364  O         1 MOL       -0.8476 ****
3055 Hw         15.100000    1.918182   34.071818  H         1 MOL        0.4238 ****
3056 Hw         15.236364    1.727273   35.535455  H         1 MOL        0.4238 ****
3057 Ow         16.127273    8.654545   26.835455  O         1 MOL       -0.8476 ****
3058 Hw         16.990909    8.390909   26.908182  H         1 MOL        0.4238 ****
3059 Hw         16.054545    9.245455   26.153636  H         1 MOL        0.4238 ****
3060 Ow          1.800000    6.972727   35.790000  O         1 MOL       -0.8476 ****
3061 Hw          2.600000    6.854545   36.199091  H         1 MOL        0.4238 ****
3062 Hw          1.681818    7.854545   35.590000  H         1 MOL        0.4238 ****
3063 Ow          6.345455   12.681818   27.871818  O         1 MOL       -0.8476 ****
3064 Hw          5.900000   11.890909   27.953636  H         1 MOL        0.4238 ****
3065 Hw          6.136364   13.072727   27.080909  H         1 MOL        0.4238 ****
3066 Ow         11.563636   16.563636   35.962727  O         1 MOL       -0.8476 ****
3067 Hw         11.781818   17.109091   35.271818  H         1 MOL        0.4238 ****
3068 Hw         11.627273   15.700000   35.690000  H         1 MOL        0.4238 ****
3069 Ow         15.927273   15.854545   26.471818  O         1 MOL       -0.8476 ****
3070 Hw         15.554545   15.645455   25.671818  H         1 MOL        0.4238 ****
3071 Hw         15.763636   15.181818   27.062727  H         1 MOL        0.4238 ****
3072 Ow          8.109091    5.772727   34.590000  O         1 MOL       -0.8476 ****
3073 Hw          7.681818    5.745455   35.399091  H         1 MOL        0.4238 ****
3074 Hw          7.645455    5.272727   33.990000  H         1 MOL        0.4238 ****
3075 Ow          9.781818    4.000000   32.562727  O         1 MOL       -0.8476 ****
3076 Hw          9.081818    4.309091   33.053636  H         1 MOL        0.4238 ****
3077 Hw          9.472727    3.536364   31.844545  H         1 MOL        0.4238 ****
3078 Ow          1.954545   16.827273   35.553636  O         1 MOL       -0.8476 ****
3079 Hw          1.863636   16.690909   36.453636  H         1 MOL        0.4238 ****
3080 Hw          1.172727   17.154545   35.226364  H         1 MOL        0.4238 ****
3081 Ow         13.154545   10.672727   26.226364  O         1 MOL       -0.8476 ****
3082 Hw         13.909091   10.409091   25.790000  H         1 MOL        0.4238 ****
3083 Hw         12.709091   11.281818   25.717273  H         1 MOL        0.4238 ****
3084 Ow          5.772727    2.054545   29.317273  O         1 MOL       -0.8476 ****
3085 Hw          5.727273    2.009091   30.226364  H         1 MOL        0.4238 ****
3086 Hw          5.790909    2.927273   29.053636  H         1 MOL        0.4238 ****
3087 Ow         17.090909    9.963636   29.208182  O         1 MOL       -0.8476 ****
3088 Hw         16.527273    9.827273   28.517273  H         1 MOL        0.4238 ****
3089 Hw         16.618182   10.063636   29.980909  H         1 MOL        0.4238 ****
3090 Ow         14.027273    6.954545   27.890000  O         1 MOL       -0.8476 ****
3091 Hw         13.981818    6.363636   28.571818  H         1 MOL        0.4238 ****
3092 Hw         14.754545    7.490909   28.008182  H         1 MOL        0.4238 ****
3093 Ow          2.609091    2.863636   34.890000  O         1 MOL       -0.8476 ****
3094 Hw          1.881818    3.409091   34.771818  H         1 MOL        0.4238 ****
3095 Hw          2.518182    2.418182   35.671818  H         1 MOL        0.4238 ****
3096 Ow          3.036364   16.500000   32.553636  O         1 MOL       -0.8476 ****
3097 Hw          3.554545   15.909091   33.008182  H         1 MOL        0.4238 ****
3098 Hw          2.890909   16.200000   31.708182  H         1 MOL        0.4238 ****
3099 Ow          9.318182   15.709091   29.490000  O         1 MOL       -0.8476 ****
3100 Hw         10.045455   15.190909   29.680909  H         1 MOL        0.4238 ****
3101 Hw          8.872727   15.345455   28.790000  H         1 MOL        0.4238 ****
3102 Ow          8.845455   14.036364   32.135455  O         1 MOL       -0.8476 ****
3103 Hw          8.636364   13.809091   31.280909  H         1 MOL        0.4238 ****
3104 Hw          9.400000   13.409091   32.490000  H         1 MOL        0.4238 ****
3105 Ow         13.054545    5.636364   34.299091  O         1 MOL       -0.8476 ****
3106 Hw         13.309091    5.245455   35.071818  H         1 MOL        0.4238 ****
3107 Hw         13.281818    6.509091   34.308182  H         1 MOL        0.4238 ****
3108 Ow          9.154545    4.845455   29.444545  O         1 MOL       -0.8476 ****
3109 Hw          8.927273    4.763636   28.571818  H         1 MOL        0.4238 ****
3110 Hw          9.590909    4.100000   29.726364  H         1 MOL        0.4238 ****
3111 Ow         10.554545    6.481818   34.580909  O         1 MOL       -0.8476 ****
3112 Hw          9.827273    5.927273   34.608182  H         1 MOL        0.4238 ****
3113 Hw         11.290909    6.000000   34.362727  H         1 MOL        0.4238 ****
3114 Ow         11.927273   14.545455   28.480909  O         1 MOL       -0.8476 ****
3115 Hw         12.118182   15.218182   27.890000  H         1 MOL        0.4238 ****
3116 Hw         12.545455   14.545455   29.144545  H         1 MOL        0.4238 ****
3117 Ow          4.945455   10.745455   28.008182  O         1 MOL       -0.8476 ****
3118 Hw          4.300000   10.500000   28.599091  H         1 MOL        0.4238 ****
3119 Hw          4.709091   10.490909   27.162727  H         1 MOL        0.4238 ****
3120 Ow          1.481818    5.327273   33.871818  O         1 MOL       -0.8476 ****
3121 Hw          2.318182    5.318182   33.499091  H         1 MOL        0.4238 ****
3122 Hw          1.427273    6.000000   34.480909  H         1 MOL        0.4238 ****
3123 Ow          5.872727    2.290909   31.699091  O         1 MOL       -0.8476 ****
3124 Hw          6.218182    1.527273   32.035455  H         1 MOL        0.4238 ****
3125 Hw          5.072727    2.463636   32.099091  H         1 MOL        0.4238 ****
3126 Ow          8.645455    4.400000   27.108182  O         1 MOL       -0.8476 ****
3127 Hw          8.354545    5.054545   26.544545  H         1 MOL        0.4238 ****
3128 Hw          8.863636    3.663636   26.626364  H         1 MOL        0.4238 ****
3129 Ow         10.018182    0.627273   28.117273  O         1 MOL       -0.8476 ****
3130 Hw          9.363636    0.672727   27.490000  H         1 MOL        0.4238 ****
3131 Hw          9.800000    0.000000   28.744545  H         1 MOL        0.4238 ****
3132 Ow         13.763636   10.936364   29.153636  O         1 MOL       -0.8476 ****
3133 Hw         13.263636   10.172727   29.090000  H         1 MOL        0.4238 ****
3134 Hw         14.000000   11.200000   28.317273  H         1 MOL        0.4238 ****
3135 Ow         14.100000    5.636364   30.290000  O         1 MOL       -0.8476 ****
3136 Hw         13.827273    4.772727   30.353636  H         1 MOL        0.4238 ****
3137 Hw         14.763636    5.781818   30.890000  H         1 MOL        0.4238 ****
3138 Ow         16.718182   11.390909   35.708182  O         1 MOL       -0.8476 ****
3139 Hw         17.545455   11.036364   35.590000  H         1 MOL        0.4238 ****
3140 Hw         16.790909   12.263636   35.926364  H         1 MOL        0.4238 ****
3141 Ow         10.445455   12.518182   33.453636  O         1 MOL       -0.8476 ****
3142 Hw          9.718182   12.309091   33.953636  H         1 MOL        0.4238 ****
3143 Hw         11.200000   12.281818   33.899091  H         1 MOL        0.4238 ****
3144 Ow         15.245455   15.081818   36.044545  O         1 MOL       -0.8476 ****
3145 Hw         15.490909   15.390909   35.226364  H         1 MOL        0.4238 ****
3146 Hw         15.963636   14.736364   36.462727  H         1 MOL        0.4238 ****
3147 Ow         10.872727   11.136364   31.271818  O         1 MOL       -0.8476 ****
3148 Hw         10.509091   11.536364   32.008182  H         1 MOL        0.4238 ****
3149 Hw         10.500000   11.472727   30.517273  H         1 MOL        0.4238 ****
3150 Ow         15.663636   10.263636   31.080909  O         1 MOL       -0.8476 ****
3151 Hw         15.709091   11.000000   31.617273  H         1 MOL        0.4238 ****
3152 Hw         14.881818   10.281818   30.617273  H         1 MOL        0.4238 ****
3153 Ow          9.090909    1.081818   34.017273  O         1 MOL       -0.8476 ****
3154 Hw          9.318182    0.900000   33.153636  H         1 MOL        0.4238 ****
3155 Hw          9.745455    1.590909   34.399091  H         1 MOL        0.4238 ****
3156 Ow          4.500000    7.663636   32.644545  O         1 MOL       -0.8476 ****
3157 Hw          5.281818    7.772727   33.099091  H         1 MOL        0.4238 ****
3158 Hw          4.118182    6.872727   32.890000  H         1 MOL        0.4238 ****
3159 Ow         12.354545    3.781818   32.744545  O         1 MOL       -0.8476 ****
3160 Hw         12.545455    4.454545   33.326364  H         1 MOL        0.4238 ****
3161 Hw         11.545455    3.936364   32.353636  H         1 MOL        0.4238 ****
3162 Ow          1.354545   14.490909   33.371818  O         1 MOL       -0.8476 ****
3163 Hw          0.936364   15.236364   33.062727  H         1 MOL        0.4238 ****
3164 Hw          2.245455   14.663636   33.453636  H         1 MOL        0.4238 ****
3165 Ow         12.336364   13.409091   31.653636  O         1 MOL       -0.8476 ****
3166 Hw         12.763636   13.527273   32.444545  H         1 MOL        0.4238 ****
3167 Hw         11.736364   12.736364   31.735455  H         1 MOL        0.4238 ****
3168 Ow          3.990909   14.000000   33.353636  O         1 MOL       -0.8476 ****
3169 Hw          3.800000   13.600000   32.562727  H         1 MOL        0.4238 ****
3170 Hw          4.872727   14.236364   33.380909  H         1 MOL        0.4238 ****
3171 Ow          4.427273    7.100000   35.799091  O         1 MOL       -0.8476 ****
3172 Hw          5.045455    7.600000   35.371818  H         1 MOL        0.4238 ****
3173 Hw          4.790909    6.300000   36.044545  H         1 MOL        0.4238 ****
3174 Ow         15.200000    7.354545   36.453636  O         1 MOL       -0.8476 ****
3175 Hw         14.363636    7.700000   36.408182  H         1 MOL        0.4238 ****
3176 Hw         15.745455    7.781818   35.862727  H         1 MOL        0.4238 ****
3177 Ow          5.981818    8.181818   30.626364  O         1 MOL       -0.8476 ****
3178 Hw          6.381818    8.990909   30.544545  H         1 MOL        0.4238 ****
3179 Hw          5.409091    8.181818   31.326364  H         1 MOL        0.4238 ****
3180 Ow         13.136364    8.109091   30.771818  O         1 MOL       -0.8476 ****
3181 Hw         12.454545    8.109091   30.171818  H         1 MOL        0.4238 ****
3182 Hw         13.472727    7.272727   30.853636  H         1 MOL        0.4238 ****
3183 Ow          3.563636    2.209091   32.462727  O         1 MOL       -0.8476 ****
3184 Hw          3.354545    2.545455   33.280909  H         1 MOL        0.4238 ****
3185 Hw          3.290909    1.345455   32.408182  H         1 MOL        0.4238 ****
3186 Ow          1.109091   12.181818   32.926364  O         1 MOL       -0.8476 ****
3187 Hw          1.590909   11.736364   33.544545  H         1 MOL        0.4238 ****
3188 Hw          1.309091   13.072727   32.971818  H         1 MOL        0.4238 ****
3189 Ow          7.427273    6.036364   30.944545  O         1 MOL       -0.8476 ****
3190 Hw          7.963636    5.800000   30.253636  H         1 MOL        0.4238 ****
3191 Hw          7.172727    6.909091   30.844545  H         1 MOL        0.4238 ****
3192 Ow          3.563636    0.845455   26.890000  O         1 MOL       -0.8476 ****
3193 Hw          3.463636    1.700000   27.190000  H         1 MOL        0.4238 ****
3194 Hw          3.518182    0.272727   27.590000  H         1 MOL        0.4238 ****
3195 Ow         10.072727    7.236364   30.053636  O         1 MOL       -0.8476 ****
3196 Hw         10.209091    7.427273   30.926364  H         1 MOL        0.4238 ****
3197 Hw          9.800000    6.372727   29.971818  H         1 MOL        0.4238 ****
3198 Ow          0.745455   14.072727   35.862727  O         1 MOL       -0.8476 ****
3199 Hw          0.872727   14.318182   34.999091  H         1 MOL        0.4238 ****
3200 Hw          1.500000   14.272727   36.344545  H         1 MOL        0.4238 ****
3201 Ow         10.481818   12.390909   28.990000  O         1 MOL       -0.8476 ****
3202 Hw         10.545455   11.627273   28.490000  H         1 MOL        0.4238 ****
3203 Hw         11.045455   13.018182   28.662727  H         1 MOL        0.4238 ****
3204 Ow          3.672727    7.636364   29.899091  O         1 MOL       -0.8476 ****
3205 Hw          4.518182    7.963636   29.944545  H         1 MOL        0.4238 ****
3206 Hw          3.618182    6.863636   30.371818  H         1 MOL        0.4238 ****
3207 Ow          3.854545    4.900000   30.417273  O         1 MOL       -0.8476 ****
3208 Hw          3.381818    4.145455   30.262727  H         1 MOL        0.4238 ****
3209 Hw          4.554545    4.945455   29.835455  H         1 MOL        0.4238 ****
3210 Ow         11.118182    3.727273   36.526364  O         1 MOL       -0.8476 ****
3211 Hw         10.709091    4.300000   37.108182  H         1 MOL        0.4238 ****
3212 Hw         11.963636    4.009091   36.371818  H         1 MOL        0.4238 ****
3213 Ow         11.318182    2.154545   34.699091  O         1 MOL       -0.8476 ****
3214 Hw         11.318182    2.736364   35.399091  H         1 MOL        0.4238 ****
3215 Hw         11.572727    2.590909   33.944545  H         1 MOL        0.4238 ****
3216 Ow          1.572727   16.645455   29.699091  O         1 MOL       -0.8476 ****
3217 Hw          1.190909   15.863636   29.453636  H         1 MOL        0.4238 ****
3218 Hw          2.427273   16.672727   29.390000  H         1 MOL        0.4238 ****
3219 Ow          9.881818    7.509091   32.526364  O         1 MOL       -0.8476 ****
3220 Hw         10.254545    7.218182   33.308182  H         1 MOL        0.4238 ****
3221 Hw          9.009091    7.263636   32.499091  H         1 MOL        0.4238 ****
3222 Ow          1.136364    5.218182   31.399091  O         1 MOL       -0.8476 ****
3223 Hw          1.909091    4.918182   31.026364  H         1 MOL        0.4238 ****
3224 Hw          1.254545    5.354545   32.290000  H         1 MOL        0.4238 ****
3225 Ow         13.218182    8.909091   36.362727  O         1 MOL       -0.8476 ****
3226 Hw         13.572727    9.718182   36.544545  H         1 MOL        0.4238 ****
3227 Hw         13.309091    8.727273   35.480909  H         1 MOL        0.4238 ****
3228 Ow         15.836364    5.763636   32.235455  O         1 MOL       -0.8476 ****
3229 Hw         15.490909    5.136364   32.799091  H         1 MOL        0.4238 ****
3230 Hw         16.581818    5.436364   31.835455  H         1 MOL        0.4238 ****
3231 Ow          9.227273   15.527273   34.590000  O         1 MOL       -0.8476 ****
3232 Hw          9.009091   15.363636   33.726364  H         1 MOL        0.4238 ****
3233 Hw          9.500000   16.381818   34.680909  H         1 MOL        0.4238 ****
3234 Ow          2.218182   10.609091   34.599091  O         1 MOL       -0.8476 ****
3235 Hw          2.418182   10.054545   35.290000  H         1 MOL        0.4238 ****
3236 Hw          2.309091   10.163636   33.817273  H         1 MOL        0.4238 ****
3237 Ow         13.018182    9.900000   32.490000  O         1 MOL       -0.8476 ****
3238 Hw         13.236364    9.327273   31.817273  H         1 MOL        0.4238 ****
3239 Hw         12.200000   10.263636   32.326364  H         1 MOL        0.4238 ****
3240 Ow         16.763636   16.154545   31.762727  O         1 MOL       -0.8476 ****
3241 Hw         17.318182   16.427273   31.099091  H         1 MOL        0.4238 ****
3242 Hw         16.418182   15.345455   31.562727  H         1 MOL        0.4238 ****
3243 Ow         12.154545   16.009091   31.526364  O         1 MOL       -0.8476 ****
3244 Hw         12.918182   16.054545   31.035455  H         1 MOL        0.4238 ****
3245 Hw         11.945455   15.136364   31.690000  H         1 MOL        0.4238 ****
3246 Ow          7.027273   15.381818   36.871818  O         1 MOL       -0.8476 ****
3247 Hw          6.518182   16.118182   36.953636  H         1 MOL        0.4238 ****
3248 Hw          7.500000   15.418182   36.090000  H         1 MOL        0.4238 ****
3249 Ow         16.463636    1.500000   26.026364  O         1 MOL       -0.8476 ****
3250 Hw         17.127273    1.345455   25.417273  H         1 MOL        0.4238 ****
3251 Hw         16.181818    0.709091   26.371818  H         1 MOL        0.4238 ****
3252 Ow         13.390909   14.572727   25.608182  O         1 MOL       -0.8476 ****
3253 Hw         14.000000   14.681818   24.935455  H         1 MOL        0.4238 ****
3254 Hw         13.027273   15.381818   25.817273  H         1 MOL        0.4238 ****
3255 Ow         12.409091    8.700000   27.380909  O         1 MOL       -0.8476 ****
3256 Hw         12.954545    7.963636   27.399091  H         1 MOL        0.4238 ****
3257 Hw         12.772727    9.327273   26.835455  H         1 MOL        0.4238 ****
3258 Ow         15.772727   15.909091   33.944545  O         1 MOL       -0.8476 ****
3259 Hw         16.254545   16.000000   33.180909  H         1 MOL        0.4238 ****
3260 Hw         15.527273   16.727273   34.253636  H         1 MOL        0.4238 ****
3261 Ow          3.163636    3.236364   27.817273  O         1 MOL       -0.8476 ****
3262 Hw          2.445455    3.700000   27.508182  H         1 MOL        0.4238 ****
3263 Hw          3.081818    3.100000   28.708182  H         1 MOL        0.4238 ****
3264 Ow          8.245455    9.381818   33.744545  O         1 MOL       -0.8476 ****
3265 Hw          8.609091    9.372727   32.908182  H         1 MOL        0.4238 ****
3266 Hw          8.336364   10.218182   34.108182  H         1 MOL        0.4238 ****
3267 Ow          4.154545   11.981818   34.817273  O         1 MOL       -0.8476 ****
3268 Hw          4.036364   12.827273   34.508182  H         1 MOL        0.4238 ****
3269 Hw          3.390909   11.509091   34.699091  H         1 MOL        0.4238 ****
3270 Ow          9.990909    2.418182   30.099091  O         1 MOL       -0.8476 ****
3271 Hw          9.918182    2.090909   29.253636  H         1 MOL        0.4238 ****
3272 Hw          9.972727    1.727273   30.690000  H         1 MOL        0.4238 ****
3273 Ow         16.309091    3.772727   33.826364  O         1 MOL       -0.8476 ****
3274 Hw         16.972727    4.400000   33.862727  H         1 MOL        0.4238 ****
3275 Hw         16.563636    3.090909   33.290000  H         1 MOL        0.4238 ****
3276 Ow          6.881818    2.118182   34.808182  O         1 MOL       -0.8476 ****
3277 Hw          7.700000    1.972727   34.444545  H         1 MOL        0.4238 ****
3278 Hw          6.954545    2.163636   35.708182  H         1 MOL        0.4238 ****
3279 Ow          6.345455    7.927273   34.280909  O         1 MOL       -0.8476 ****
3280 Hw          6.854545    8.663636   34.126364  H         1 MOL        0.4238 ****
3281 Hw          6.881818    7.200000   34.308182  H         1 MOL        0.4238 ****
3282 Ow         14.345455   16.336364   29.990000  O         1 MOL       -0.8476 ****
3283 Hw         14.645455   16.918182   29.362727  H         1 MOL        0.4238 ****
3284 Hw         14.945455   16.281818   30.671818  H         1 MOL        0.4238 ****
3285 Ow          4.318182   16.100000   35.453636  O         1 MOL       -0.8476 ****
3286 Hw          3.490909   16.472727   35.435455  H         1 MOL        0.4238 ****
3287 Hw          4.254545   15.245455   35.744545  H         1 MOL        0.4238 ****
3288 Ow         15.990909    8.300000   32.671818  O         1 MOL       -0.8476 ****
3289 Hw         15.745455    7.490909   32.335455  H         1 MOL        0.4238 ****
3290 Hw         16.000000    8.918182   32.008182  H         1 MOL        0.4238 ****
3291 Ow          6.172727    7.045455   27.199091  O         1 MOL       -0.8476 ****
3292 Hw          6.627273    7.818182   27.026364  H         1 MOL        0.4238 ****
3293 Hw          5.372727    7.063636   26.762727  H         1 MOL        0.4238 ****
3294 Ow         16.927273    3.381818   36.199091  O         1 MOL       -0.8476 ****
3295 Hw         16.772727    3.663636   35.344545  H         1 MOL        0.4238 ****
3296 Hw         16.163636    3.045455   36.544545  H         1 MOL        0.4238 ****
3297 Ow         16.500000    8.763636   35.062727  O         1 MOL       -0.8476 ****
3298 Hw         16.845455    9.590909   35.199091  H         1 MOL        0.4238 ****
3299 Hw         16.427273    8.609091   34.162727  H         1 MOL        0.4238 ****
3300 Ow          8.581818    8.963636   29.099091  O         1 MOL       -0.8476 ****
3301 Hw          9.072727    8.336364   29.535455  H         1 MOL        0.4238 ****
3302 Hw          8.290909    9.590909   29.699091  H         1 MOL        0.4238 ****
3303 Ow          0.763636   14.536364   29.008182  O         1 MOL       -0.8476 ****
3304 Hw          0.118182   14.427273   28.371818  H         1 MOL        0.4238 ****
3305 Hw          0.772727   13.818182   29.553636  H         1 MOL        0.4238 ****
3306 Ow          6.881818   12.918182   36.035455  O         1 MOL       -0.8476 ****
3307 Hw          6.172727   12.463636   36.380909  H         1 MOL        0.4238 ****
3308 Hw          6.854545   13.781818   36.317273  H         1 MOL        0.4238 ****
3309 Ow         17.354545    2.018182   32.426364  O         1 MOL       -0.8476 ****
3310 Hw         17.318182    1.200000   32.826364  H         1 MOL        0.4238 ****
3311 Hw         17.381818    1.918182   31.526364  H         1 MOL        0.4238 ****
3312 Ow          3.654545    5.245455   32.908182  O         1 MOL       -0.8476 ****
3313 Hw          4.000000    4.709091   33.562727  H         1 MOL        0.4238 ****
3314 Hw          4.018182    5.009091   32.108182  H         1 MOL        0.4238 ****
3315 Ow         13.718182    2.218182   31.380909  O         1 MOL       -0.8476 ****
3316 Hw         14.190909    1.627273   31.880909  H         1 MOL        0.4238 ****
3317 Hw         13.272727    2.790909   31.935455  H         1 MOL        0.4238 ****
3318 Ow          9.872727   17.509091   31.762727  O         1 MOL       -0.8476 ****
3319 Hw          9.300000   16.854545   31.480909  H         1 MOL        0.4238 ****
3320 Hw         10.718182   17.181818   31.762727  H         1 MOL        0.4238 ****
3321 Ow          6.390909   14.518182   32.944545  O         1 MOL       -0.8476 ****
3322 Hw          6.345455   15.263636   33.462727  H         1 MOL        0.4238 ****
3323 Hw          7.200000   14.490909   32.535455  H         1 MOL        0.4238 ****
3324 Ow         12.590909    4.390909   27.553636  O         1 MOL       -0.8476 ****
3325 Hw         12.054545    5.118182   27.590000  H         1 MOL        0.4238 ****
3326 Hw         12.727273    4.072727   28.399091  H         1 MOL        0.4238 ****
3327 Ow         15.254545    2.281818   29.290000  O         1 MOL       -0.8476 ****
3328 Hw         14.490909    2.272727   29.780909  H         1 MOL        0.4238 ****
3329 Hw         15.272727    3.036364   28.780909  H         1 MOL        0.4238 ****
3330 Ow         19.745455    2.772727   30.326364  O         1 MOL       -0.8476 ****
3331 Hw         20.063636    2.618182   31.162727  H         1 MOL        0.4238 ****
3332 Hw         18.945455    2.363636   30.217273  H         1 MOL        0.4238 ****
3333 Ow         17.872727    3.618182   27.153636  O         1 MOL       -0.8476 ****
3334 Hw         17.127273    4.009091   27.508182  H         1 MOL        0.4238 ****
3335 Hw         17.618182    2.954545   26.580909  H         1 MOL        0.4238 ****
3336 Ow         22.872727   11.863636   31.862727  O         1 MOL       -0.8476 ****
3337 Hw         22.027273   11.800000   31.526364  H         1 MOL        0.4238 ****
3338 Hw         22.972727   12.672727   32.262727  H         1 MOL        0.4238 ****
3339 Ow         24.681818   10.672727   30.571818  O         1 MOL       -0.8476 ****
3340 Hw         23.972727   10.827273   31.117273  H         1 MOL        0.4238 ****
3341 Hw         24.990909   11.463636   30.244545  H         1 MOL        0.4238 ****
3342 Ow         23.927273    9.472727   27.317273  O         1 MOL       -0.8476 ****
3343 Hw         24.554545    9.327273   27.953636  H         1 MOL        0.4238 ****
3344 Hw         23.263636    9.990909   27.662727  H         1 MOL        0.4238 ****
3345 Ow         20.745455   13.318182   30.917273  O         1 MOL       -0.8476 ****
3346 Hw         20.036364   13.036364   30.435455  H         1 MOL        0.4238 ****
3347 Hw         21.272727   13.845455   30.399091  H         1 MOL        0.4238 ****
3348 Ow         21.681818    3.836364   34.899091  O         1 MOL       -0.8476 ****
3349 Hw         22.427273    3.327273   34.980909  H         1 MOL        0.4238 ****
3350 Hw         20.945455    3.309091   34.935455  H         1 MOL        0.4238 ****
3351 Ow         27.945455   12.463636   36.635455  O         1 MOL       -0.8476 ****
3352 Hw         28.372727   12.463636   37.435455  H         1 MOL        0.4238 ****
3353 Hw         27.509091   11.672727   36.535455  H         1 MOL        0.4238 ****
3354 Ow         19.790909   13.309091   26.162727  O         1 MOL       -0.8476 ****
3355 Hw         19.554545   14.181818   26.162727  H         1 MOL        0.4238 ****
3356 Hw         19.145455   12.818182   26.571818  H         1 MOL        0.4238 ****
3357 Ow         19.881818   10.190909   29.326364  O         1 MOL       -0.8476 ****
3358 Hw         20.009091    9.427273   29.799091  H         1 MOL        0.4238 ****
3359 Hw         19.381818   10.772727   29.826364  H         1 MOL        0.4238 ****
3360 Ow         23.336364   16.509091   34.353636  O         1 MOL       -0.8476 ****
3361 Hw         22.500000   16.354545   34.671818  H         1 MOL        0.4238 ****
3362 Hw         23.590909   17.345455   34.590000  H         1 MOL        0.4238 ****
3363 Ow         18.727273    6.972727   35.790000  O         1 MOL       -0.8476 ****
3364 Hw         19.527273    6.854545   36.199091  H         1 MOL        0.4238 ****
3365 Hw         18.609091    7.854545   35.590000  H         1 MOL        0.4238 ****
3366 Ow         23.272727   12.681818   27.871818  O         1 MOL       -0.8476 ****
3367 Hw         22.827273   11.890909   27.953636  H         1 MOL        0.4238 ****
3368 Hw         23.063636   13.072727   27.080909  H         1 MOL        0.4238 ****
3369 Ow         29.454545   11.436364   34.208182  O         1 MOL       -0.8476 ****
3370 Hw         29.790909   10.772727   33.680909  H         1 MOL        0.4238 ****
3371 Hw         29.927273   11.481818   34.980909  H         1 MOL        0.4238 ****
3372 Ow         25.054545   17.236364   25.835455  O         1 MOL       -0.8476 ****
3373 Hw         25.418182   18.063636   25.753636  H         1 MOL        0.4238 ****
3374 Hw         24.145455   17.309091   25.890000  H         1 MOL        0.4238 ****
3375 Ow         19.490909    9.145455   32.762727  O         1 MOL       -0.8476 ****
3376 Hw         20.300000    8.736364   32.635455  H         1 MOL        0.4238 ****
3377 Hw         18.827273    8.554545   32.590000  H         1 MOL        0.4238 ****
3378 Ow         29.345455    3.409091   29.853636  O         1 MOL       -0.8476 ****
3379 Hw         28.563636    2.954545   29.735455  H         1 MOL        0.4238 ****
3380 Hw         29.909091    2.918182   30.362727  H         1 MOL        0.4238 ****
3381 Ow         25.036364    5.772727   34.590000  O         1 MOL       -0.8476 ****
3382 Hw         24.609091    5.745455   35.399091  H         1 MOL        0.4238 ****
3383 Hw         24.572727    5.272727   33.990000  H         1 MOL        0.4238 ****
3384 Ow         26.545455    8.363636   35.562727  O         1 MOL       -0.8476 ****
3385 Hw         26.963636    7.600000   35.299091  H         1 MOL        0.4238 ****
3386 Hw         26.036364    8.672727   34.880909  H         1 MOL        0.4238 ****
3387 Ow         18.390909    7.645455   28.444545  O         1 MOL       -0.8476 ****
3388 Hw         19.290909    7.536364   28.526364  H         1 MOL        0.4238 ****
3389 Hw         18.172727    8.509091   28.635455  H         1 MOL        0.4238 ****
3390 Ow         18.881818   16.827273   35.553636  O         1 MOL       -0.8476 ****
3391 Hw         18.790909   16.690909   36.453636  H         1 MOL        0.4238 ****
3392 Hw         18.100000   17.154545   35.226364  H         1 MOL        0.4238 ****
3393 Ow         20.890909   16.645455   29.026364  O         1 MOL       -0.8476 ****
3394 Hw         21.345455   15.863636   29.080909  H         1 MOL        0.4238 ****
3395 Hw         21.481818   17.345455   28.999091  H         1 MOL        0.4238 ****
3396 Ow         28.854545   14.363636   34.962727  O         1 MOL       -0.8476 ****
3397 Hw         28.909091   13.663636   35.544545  H         1 MOL        0.4238 ****
3398 Hw         28.381818   14.127273   34.235455  H         1 MOL        0.4238 ****
3399 Ow         21.890909   11.781818   36.971818  O         1 MOL       -0.8476 ****
3400 Hw         21.436364   11.790909   36.190000  H         1 MOL        0.4238 ****
3401 Hw         21.318182   11.618182   37.662727  H         1 MOL        0.4238 ****
3402 Ow         19.536364    2.863636   34.890000  O         1 MOL       -0.8476 ****
3403 Hw         18.809091    3.409091   34.771818  H         1 MOL        0.4238 ****
3404 Hw         19.445455    2.418182   35.671818  H         1 MOL        0.4238 ****
3405 Ow         19.963636   16.500000   32.553636  O         1 MOL       -0.8476 ****
3406 Hw         20.481818   15.909091   33.008182  H         1 MOL        0.4238 ****
3407 Hw         19.818182   16.200000   31.708182  H         1 MOL        0.4238 ****
3408 Ow         26.245455   15.709091   29.490000  O         1 MOL       -0.8476 ****
3409 Hw         26.972727   15.190909   29.680909  H         1 MOL        0.4238 ****
3410 Hw         25.800000   15.345455   28.790000  H         1 MOL        0.4238 ****
3411 Ow         29.981818    5.636364   34.299091  O         1 MOL       -0.8476 ****
3412 Hw         30.236364    5.245455   35.071818  H         1 MOL        0.4238 ****
3413 Hw         30.209091    6.509091   34.308182  H         1 MOL        0.4238 ****
3414 Ow         25.000000   13.018182   29.671818  O         1 MOL       -0.8476 ****
3415 Hw         25.818182   13.145455   29.290000  H         1 MOL        0.4238 ****
3416 Hw         24.354545   13.036364   29.026364  H         1 MOL        0.4238 ****
3417 Ow         22.600000    0.854545   25.926364  O         1 MOL       -0.8476 ****
3418 Hw         21.863636    0.863636   26.453636  H         1 MOL        0.4238 ****
3419 Hw         22.627273    1.609091   25.426364  H         1 MOL        0.4238 ****
3420 Ow         28.854545   14.545455   28.480909  O         1 MOL       -0.8476 ****
3421 Hw         29.045455   15.218182   27.890000  H         1 MOL        0.4238 ****
3422 Hw         29.472727   14.545455   29.144545  H         1 MOL        0.4238 ****
3423 Ow         21.872727   10.745455   28.008182  O         1 MOL       -0.8476 ****
3424 Hw         21.227273   10.500000   28.599091  H         1 MOL        0.4238 ****
3425 Hw         21.636364   10.490909   27.162727  H         1 MOL        0.4238 ****
3426 Ow         29.254545   16.609091   26.644545  O         1 MOL       -0.8476 ****
3427 Hw         29.654545   17.190909   26.062727  H         1 MOL        0.4238 ****
3428 Hw         28.800000   17.081818   27.280909  H         1 MOL        0.4238 ****
3429 Ow         18.409091    5.327273   33.871818  O         1 MOL       -0.8476 ****
3430 Hw         19.245455    5.318182   33.499091  H         1 MOL        0.4238 ****
3431 Hw         18.354545    6.000000   34.480909  H         1 MOL        0.4238 ****
3432 Ow         22.800000    2.290909   31.699091  O         1 MOL       -0.8476 ****
3433 Hw         23.145455    1.527273   32.035455  H         1 MOL        0.4238 ****
3434 Hw         22.000000    2.463636   32.099091  H         1 MOL        0.4238 ****
3435 Ow         27.372727   12.518182   33.453636  O         1 MOL       -0.8476 ****
3436 Hw         26.645455   12.309091   33.953636  H         1 MOL        0.4238 ****
3437 Hw         28.127273   12.281818   33.899091  H         1 MOL        0.4238 ****
3438 Ow         27.800000   11.136364   31.271818  O         1 MOL       -0.8476 ****
3439 Hw         27.436364   11.536364   32.008182  H         1 MOL        0.4238 ****
3440 Hw         27.427273   11.472727   30.517273  H         1 MOL        0.4238 ****
3441 Ow         26.018182    1.081818   34.017273  O         1 MOL       -0.8476 ****
3442 Hw         26.245455    0.900000   33.153636  H         1 MOL        0.4238 ****
3443 Hw         26.672727    1.590909   34.399091  H         1 MOL        0.4238 ****
3444 Ow         21.427273    7.663636   32.644545  O         1 MOL       -0.8476 ****
3445 Hw         22.209091    7.772727   33.099091  H         1 MOL        0.4238 ****
3446 Hw         21.045455    6.872727   32.890000  H         1 MOL        0.4238 ****
3447 Ow         29.281818    3.781818   32.744545  O         1 MOL       -0.8476 ****
3448 Hw         29.472727    4.454545   33.326364  H         1 MOL        0.4238 ****
3449 Hw         28.472727    3.936364   32.353636  H         1 MOL        0.4238 ****
3450 Ow         18.281818   14.490909   33.371818  O         1 MOL       -0.8476 ****
3451 Hw         17.863636   15.236364   33.062727  H         1 MOL        0.4238 ****
3452 Hw         19.172727   14.663636   33.453636  H         1 MOL        0.4238 ****
3453 Ow         21.036364   10.272727   25.826364  O         1 MOL       -0.8476 ****
3454 Hw         20.972727   11.027273   25.317273  H         1 MOL        0.4238 ****
3455 Hw         21.072727    9.545455   25.280909  H         1 MOL        0.4238 ****
3456 Ow         22.845455    5.154545   29.135455  O         1 MOL       -0.8476 ****
3457 Hw         22.954545    5.754545   28.462727  H         1 MOL        0.4238 ****
3458 Hw         23.263636    5.463636   29.890000  H         1 MOL        0.4238 ****
3459 Ow         22.909091    8.181818   30.626364  O         1 MOL       -0.8476 ****
3460 Hw         23.309091    8.990909   30.544545  H         1 MOL        0.4238 ****
3461 Hw         22.336364    8.181818   31.326364  H         1 MOL        0.4238 ****
3462 Ow         20.490909    2.209091   32.462727  O         1 MOL       -0.8476 ****
3463 Hw         20.281818    2.545455   33.280909  H         1 MOL        0.4238 ****
3464 Hw         20.218182    1.345455   32.408182  H         1 MOL        0.4238 ****
3465 Ow         27.000000    7.236364   30.053636  O         1 MOL       -0.8476 ****
3466 Hw         27.136364    7.427273   30.926364  H         1 MOL        0.4238 ****
3467 Hw         26.727273    6.372727   29.971818  H         1 MOL        0.4238 ****
3468 Ow         27.409091   12.390909   28.990000  O         1 MOL       -0.8476 ****
3469 Hw         27.472727   11.627273   28.490000  H         1 MOL        0.4238 ****
3470 Hw         27.972727   13.018182   28.662727  H         1 MOL        0.4238 ****
3471 Ow         20.600000    7.636364   29.899091  O         1 MOL       -0.8476 ****
3472 Hw         21.445455    7.963636   29.944545  H         1 MOL        0.4238 ****
3473 Hw         20.545455    6.863636   30.371818  H         1 MOL        0.4238 ****
3474 Ow         20.781818    4.900000   30.417273  O         1 MOL       -0.8476 ****
3475 Hw         20.309091    4.145455   30.262727  H         1 MOL        0.4238 ****
3476 Hw         21.481818    4.945455   29.835455  H         1 MOL        0.4238 ****
3477 Ow         22.345455    4.045455   37.708182  O         1 MOL       -0.8476 ****
3478 Hw         22.181818    4.454545   38.508182  H         1 MOL        0.4238 ****
3479 Hw         22.727273    4.636364   37.135455  H         1 MOL        0.4238 ****
3480 Ow         28.045455    3.727273   36.526364  O         1 MOL       -0.8476 ****
3481 Hw         27.636364    4.300000   37.108182  H         1 MOL        0.4238 ****
3482 Hw         28.890909    4.009091   36.371818  H         1 MOL        0.4238 ****
3483 Ow         28.245455    2.154545   34.699091  O         1 MOL       -0.8476 ****
3484 Hw         28.245455    2.736364   35.399091  H         1 MOL        0.4238 ****
3485 Hw         28.500000    2.590909   33.944545  H         1 MOL        0.4238 ****
3486 Ow         18.500000   16.645455   29.699091  O         1 MOL       -0.8476 ****
3487 Hw         18.118182   15.863636   29.453636  H         1 MOL        0.4238 ****
3488 Hw         19.354545   16.672727   29.390000  H         1 MOL        0.4238 ****
3489 Ow         22.281818   14.527273   29.544545  O         1 MOL       -0.8476 ****
3490 Hw         22.881818   15.200000   29.626364  H         1 MOL        0.4238 ****
3491 Hw         22.681818   13.809091   29.162727  H         1 MOL        0.4238 ****
3492 Ow         26.809091    7.509091   32.526364  O         1 MOL       -0.8476 ****
3493 Hw         27.181818    7.218182   33.308182  H         1 MOL        0.4238 ****
3494 Hw         25.936364    7.263636   32.499091  H         1 MOL        0.4238 ****
3495 Ow         18.063636    5.218182   31.399091  O         1 MOL       -0.8476 ****
3496 Hw         18.836364    4.918182   31.026364  H         1 MOL        0.4238 ****
3497 Hw         18.181818    5.354545   32.290000  H         1 MOL        0.4238 ****
3498 Ow         30.145455    8.909091   36.362727  O         1 MOL       -0.8476 ****
3499 Hw         30.500000    9.718182   36.544545  H         1 MOL        0.4238 ****
3500 Hw         30.236364    8.727273   35.480909  H         1 MOL        0.4238 ****
3501 Ow         23.800000    4.490909   32.808182  O         1 MOL       -0.8476 ****
3502 Hw         23.490909    3.681818   32.535455  H         1 MOL        0.4238 ****
3503 Hw         24.036364    4.981818   32.080909  H         1 MOL        0.4238 ****
3504 Ow         26.154545   15.527273   34.590000  O         1 MOL       -0.8476 ****
3505 Hw         25.936364   15.363636   33.726364  H         1 MOL        0.4238 ****
3506 Hw         26.427273   16.381818   34.680909  H         1 MOL        0.4238 ****
3507 Ow         29.945455    9.900000   32.490000  O         1 MOL       -0.8476 ****
3508 Hw         30.163636    9.327273   31.817273  H         1 MOL        0.4238 ****
3509 Hw         29.127273   10.263636   32.326364  H         1 MOL        0.4238 ****
3510 Ow         29.081818   16.009091   31.526364  O         1 MOL       -0.8476 ****
3511 Hw         29.845455   16.054545   31.035455  H         1 MOL        0.4238 ****
3512 Hw         28.872727   15.136364   31.690000  H         1 MOL        0.4238 ****
3513 Ow         18.454545   11.709091   30.562727  O         1 MOL       -0.8476 ****
3514 Hw         18.409091   11.700000   31.471818  H         1 MOL        0.4238 ****
3515 Hw         17.700000   11.336364   30.217273  H         1 MOL        0.4238 ****
3516 Ow         29.336364    8.700000   27.380909  O         1 MOL       -0.8476 ****
3517 Hw         29.881818    7.963636   27.399091  H         1 MOL        0.4238 ****
3518 Hw         29.700000    9.327273   26.835455  H         1 MOL        0.4238 ****
3519 Ow         20.090909    3.236364   27.817273  O         1 MOL       -0.8476 ****
3520 Hw         19.372727    3.700000   27.508182  H         1 MOL        0.4238 ****
3521 Hw         20.009091    3.100000   28.708182  H         1 MOL        0.4238 ****
3522 Ow         27.145455   10.254545   27.599091  O         1 MOL       -0.8476 ****
3523 Hw         26.509091    9.827273   28.090000  H         1 MOL        0.4238 ****
3524 Hw         27.681818    9.636364   27.208182  H         1 MOL        0.4238 ****
3525 Ow         26.918182    2.418182   30.099091  O         1 MOL       -0.8476 ****
3526 Hw         26.845455    2.090909   29.253636  H         1 MOL        0.4238 ****
3527 Hw         26.900000    1.727273   30.690000  H         1 MOL        0.4238 ****
3528 Ow         23.063636   13.790909   25.735455  O         1 MOL       -0.8476 ****
3529 Hw         23.445455   13.263636   25.099091  H         1 MOL        0.4238 ****
3530 Hw         22.663636   14.509091   25.335455  H         1 MOL        0.4238 ****
3531 Ow         23.272727    7.927273   34.280909  O         1 MOL       -0.8476 ****
3532 Hw         23.781818    8.663636   34.126364  H         1 MOL        0.4238 ****
3533 Hw         23.809091    7.200000   34.308182  H         1 MOL        0.4238 ****
3534 Ow         23.100000    7.045455   27.199091  O         1 MOL       -0.8476 ****
3535 Hw         23.554545    7.818182   27.026364  H         1 MOL        0.4238 ****
3536 Hw         22.300000    7.063636   26.762727  H         1 MOL        0.4238 ****
3537 Ow         25.509091    8.963636   29.099091  O         1 MOL       -0.8476 ****
3538 Hw         26.000000    8.336364   29.535455  H         1 MOL        0.4238 ****
3539 Hw         25.218182    9.590909   29.699091  H         1 MOL        0.4238 ****
3540 Ow         18.418182   11.545455   27.208182  O         1 MOL       -0.8476 ****
3541 Hw         18.409091   11.118182   28.008182  H         1 MOL        0.4238 ****
3542 Hw         19.163636   11.290909   26.744545  H         1 MOL        0.4238 ****
3543 Ow         23.809091   12.918182   36.035455  O         1 MOL       -0.8476 ****
3544 Hw         23.100000   12.463636   36.380909  H         1 MOL        0.4238 ****
3545 Hw         23.781818   13.781818   36.317273  H         1 MOL        0.4238 ****
3546 Ow         20.581818    5.245455   32.908182  O         1 MOL       -0.8476 ****
3547 Hw         20.927273    4.709091   33.562727  H         1 MOL        0.4238 ****
3548 Hw         20.945455    5.009091   32.108182  H         1 MOL        0.4238 ****
3549 Ow         25.081818   14.690909   27.517273  O         1 MOL       -0.8476 ****
3550 Hw         25.372727   14.781818   26.662727  H         1 MOL        0.4238 ****
3551 Hw         24.363636   14.127273   27.535455  H         1 MOL        0.4238 ****
3552 Ow         26.800000   17.509091   31.762727  O         1 MOL       -0.8476 ****
3553 Hw         26.227273   16.854545   31.480909  H         1 MOL        0.4238 ****
3554 Hw         27.645455   17.181818   31.762727  H         1 MOL        0.4238 ****
3555 Ow         23.318182   14.518182   32.944545  O         1 MOL       -0.8476 ****
3556 Hw         23.272727   15.263636   33.462727  H         1 MOL        0.4238 ****
3557 Hw         24.127273   14.490909   32.535455  H         1 MOL        0.4238 ****
3558 Ow         29.518182    4.390909   27.553636  O         1 MOL       -0.8476 ****
3559 Hw         28.981818    5.118182   27.590000  H         1 MOL        0.4238 ****
3560 Hw         29.654545    4.072727   28.399091  H         1 MOL        0.4238 ****
3561 Ow          2.818182   19.700000   30.326364  O         1 MOL       -0.8476 ****
3562 Hw          3.136364   19.545455   31.162727  H         1 MOL        0.4238 ****
3563 Hw          2.018182   19.290909   30.217273  H         1 MOL        0.4238 ****
3564 Ow          0.945455   20.545455   27.153636  O         1 MOL       -0.8476 ****
3565 Hw          0.200000   20.936364   27.508182  H         1 MOL        0.4238 ****
3566 Hw          0.690909   19.881818   26.580909  H         1 MOL        0.4238 ****
3567 Ow         16.618182   22.818182   29.053636  O         1 MOL       -0.8476 ****
3568 Hw         16.918182   23.672727   29.053636  H         1 MOL        0.4238 ****
3569 Hw         17.081818   22.327273   29.653636  H         1 MOL        0.4238 ****
3570 Ow          7.000000   26.400000   27.317273  O         1 MOL       -0.8476 ****
3571 Hw          7.627273   26.254545   27.953636  H         1 MOL        0.4238 ****
3572 Hw          6.336364   26.918182   27.662727  H         1 MOL        0.4238 ****
3573 Ow          3.818182   30.245455   30.917273  O         1 MOL       -0.8476 ****
3574 Hw          3.109091   29.963636   30.435455  H         1 MOL        0.4238 ****
3575 Hw          4.345455   30.772727   30.399091  H         1 MOL        0.4238 ****
3576 Ow          4.754545   20.763636   34.899091  O         1 MOL       -0.8476 ****
3577 Hw          5.500000   20.254545   34.980909  H         1 MOL        0.4238 ****
3578 Hw          4.018182   20.236364   34.935455  H         1 MOL        0.4238 ****
3579 Ow         15.345455   21.263636   27.971818  O         1 MOL       -0.8476 ****
3580 Hw         14.672727   21.681818   27.517273  H         1 MOL        0.4238 ****
3581 Hw         15.809091   21.881818   28.453636  H         1 MOL        0.4238 ****
3582 Ow          2.872727   32.772727   25.662727  O         1 MOL       -0.8476 ****
3583 Hw          3.181818   33.472727   26.153636  H         1 MOL        0.4238 ****
3584 Hw          3.272727   32.772727   24.844545  H         1 MOL        0.4238 ****
3585 Ow          2.863636   30.236364   26.162727  O         1 MOL       -0.8476 ****
3586 Hw          2.627273   31.109091   26.162727  H         1 MOL        0.4238 ****
3587 Hw          2.218182   29.745455   26.571818  H         1 MOL        0.4238 ****
3588 Ow          2.954545   27.118182   29.326364  O         1 MOL       -0.8476 ****
3589 Hw          3.081818   26.354545   29.799091  H         1 MOL        0.4238 ****
3590 Hw          2.454545   27.700000   29.826364  H         1 MOL        0.4238 ****
3591 Ow         15.263636   18.236364   34.726364  O         1 MOL       -0.8476 ****
3592 Hw         15.100000   18.845455   34.071818  H         1 MOL        0.4238 ****
3593 Hw         15.236364   18.654545   35.535455  H         1 MOL        0.4238 ****
3594 Ow          1.881818   23.045455   26.390000  O         1 MOL       -0.8476 ****
3595 Hw          1.472727   22.245455   26.544545  H         1 MOL        0.4238 ****
3596 Hw          1.872727   23.536364   27.153636  H         1 MOL        0.4238 ****
3597 Ow         15.690909   27.272727   25.199091  O         1 MOL       -0.8476 ****
3598 Hw         16.472727   27.290909   24.726364  H         1 MOL        0.4238 ****
3599 Hw         15.818182   27.700000   25.999091  H         1 MOL        0.4238 ****
3600 Ow          1.800000   23.900000   35.790000  O         1 MOL       -0.8476 ****
3601 Hw          2.600000   23.781818   36.199091  H         1 MOL        0.4238 ****
3602 Hw          1.681818   24.781818   35.590000  H         1 MOL        0.4238 ****
3603 Ow          6.345455   29.609091   27.871818  O         1 MOL       -0.8476 ****
3604 Hw          5.900000   28.818182   27.953636  H         1 MOL        0.4238 ****
3605 Hw          6.136364   30.000000   27.080909  H         1 MOL        0.4238 ****
3606 Ow         12.527273   28.363636   34.208182  O         1 MOL       -0.8476 ****
3607 Hw         12.863636   27.700000   33.680909  H         1 MOL        0.4238 ****
3608 Hw         13.000000   28.409091   34.980909  H         1 MOL        0.4238 ****
3609 Ow         15.927273   32.781818   26.471818  O         1 MOL       -0.8476 ****
3610 Hw         15.554545   32.572727   25.671818  H         1 MOL        0.4238 ****
3611 Hw         15.763636   32.109091   27.062727  H         1 MOL        0.4238 ****
3612 Ow         12.418182   20.336364   29.853636  O         1 MOL       -0.8476 ****
3613 Hw         11.636364   19.881818   29.735455  H         1 MOL        0.4238 ****
3614 Hw         12.981818   19.845455   30.362727  H         1 MOL        0.4238 ****
3615 Ow          8.109091   22.700000   34.590000  O         1 MOL       -0.8476 ****
3616 Hw          7.681818   22.672727   35.399091  H         1 MOL        0.4238 ****
3617 Hw          7.645455   22.200000   33.990000  H         1 MOL        0.4238 ****
3618 Ow         13.445455   21.463636   36.490000  O         1 MOL       -0.8476 ****
3619 Hw         13.263636   21.854545   37.290000  H         1 MOL        0.4238 ****
3620 Hw         14.154545   20.900000   36.571818  H         1 MOL        0.4238 ****
3621 Ow          9.781818   20.927273   32.562727  O         1 MOL       -0.8476 ****
3622 Hw          9.081818   21.236364   33.053636  H         1 MOL        0.4238 ****
3623 Hw          9.472727   20.463636   31.844545  H         1 MOL        0.4238 ****
3624 Ow          1.463636   24.572727   28.444545  O         1 MOL       -0.8476 ****
3625 Hw          2.363636   24.463636   28.526364  H         1 MOL        0.4238 ****
3626 Hw          1.245455   25.436364   28.635455  H         1 MOL        0.4238 ****
3627 Ow          1.954545   33.754545   35.553636  O         1 MOL       -0.8476 ****
3628 Hw          1.863636   33.618182   36.453636  H         1 MOL        0.4238 ****
3629 Hw          1.172727   34.081818   35.226364  H         1 MOL        0.4238 ****
3630 Ow         13.154545   27.600000   26.226364  O         1 MOL       -0.8476 ****
3631 Hw         13.909091   27.336364   25.790000  H         1 MOL        0.4238 ****
3632 Hw         12.709091   28.209091   25.717273  H         1 MOL        0.4238 ****
3633 Ow          5.772727   18.981818   29.317273  O         1 MOL       -0.8476 ****
3634 Hw          5.727273   18.936364   30.226364  H         1 MOL        0.4238 ****
3635 Hw          5.790909   19.854545   29.053636  H         1 MOL        0.4238 ****
3636 Ow          3.963636   33.572727   29.026364  O         1 MOL       -0.8476 ****
3637 Hw          4.418182   32.790909   29.080909  H         1 MOL        0.4238 ****
3638 Hw          4.554545   34.272727   28.999091  H         1 MOL        0.4238 ****
3639 Ow         17.090909   26.890909   29.208182  O         1 MOL       -0.8476 ****
3640 Hw         16.527273   26.754545   28.517273  H         1 MOL        0.4238 ****
3641 Hw         16.618182   26.990909   29.980909  H         1 MOL        0.4238 ****
3642 Ow         11.927273   31.290909   34.962727  O         1 MOL       -0.8476 ****
3643 Hw         11.981818   30.590909   35.544545  H         1 MOL        0.4238 ****
3644 Hw         11.454545   31.054545   34.235455  H         1 MOL        0.4238 ****
3645 Ow         14.027273   23.881818   27.890000  O         1 MOL       -0.8476 ****
3646 Hw         13.981818   23.290909   28.571818  H         1 MOL        0.4238 ****
3647 Hw         14.754545   24.418182   28.008182  H         1 MOL        0.4238 ****
3648 Ow          3.036364   33.427273   32.553636  O         1 MOL       -0.8476 ****
3649 Hw          3.554545   32.836364   33.008182  H         1 MOL        0.4238 ****
3650 Hw          2.890909   33.127273   31.708182  H         1 MOL        0.4238 ****
3651 Ow          8.845455   30.963636   32.135455  O         1 MOL       -0.8476 ****
3652 Hw          8.636364   30.736364   31.280909  H         1 MOL        0.4238 ****
3653 Hw          9.400000   30.336364   32.490000  H         1 MOL        0.4238 ****
3654 Ow         13.054545   22.563636   34.299091  O         1 MOL       -0.8476 ****
3655 Hw         13.309091   22.172727   35.071818  H         1 MOL        0.4238 ****
3656 Hw         13.281818   23.436364   34.308182  H         1 MOL        0.4238 ****
3657 Ow          8.072727   29.945455   29.671818  O         1 MOL       -0.8476 ****
3658 Hw          8.890909   30.072727   29.290000  H         1 MOL        0.4238 ****
3659 Hw          7.427273   29.963636   29.026364  H         1 MOL        0.4238 ****
3660 Ow          9.154545   21.772727   29.444545  O         1 MOL       -0.8476 ****
3661 Hw          8.927273   21.690909   28.571818  H         1 MOL        0.4238 ****
3662 Hw          9.590909   21.027273   29.726364  H         1 MOL        0.4238 ****
3663 Ow          5.672727   17.781818   25.926364  O         1 MOL       -0.8476 ****
3664 Hw          4.936364   17.790909   26.453636  H         1 MOL        0.4238 ****
3665 Hw          5.700000   18.536364   25.426364  H         1 MOL        0.4238 ****
3666 Ow         10.554545   23.409091   34.580909  O         1 MOL       -0.8476 ****
3667 Hw          9.827273   22.854545   34.608182  H         1 MOL        0.4238 ****
3668 Hw         11.290909   22.927273   34.362727  H         1 MOL        0.4238 ****
3669 Ow          4.945455   27.672727   28.008182  O         1 MOL       -0.8476 ****
3670 Hw          4.300000   27.427273   28.599091  H         1 MOL        0.4238 ****
3671 Hw          4.709091   27.418182   27.162727  H         1 MOL        0.4238 ****
3672 Ow         12.327273   33.536364   26.644545  O         1 MOL       -0.8476 ****
3673 Hw         12.727273   34.118182   26.062727  H         1 MOL        0.4238 ****
3674 Hw         11.872727   34.009091   27.280909  H         1 MOL        0.4238 ****
3675 Ow          5.872727   19.218182   31.699091  O         1 MOL       -0.8476 ****
3676 Hw          6.218182   18.454545   32.035455  H         1 MOL        0.4238 ****
3677 Hw          5.072727   19.390909   32.099091  H         1 MOL        0.4238 ****
3678 Ow          8.645455   21.327273   27.108182  O         1 MOL       -0.8476 ****
3679 Hw          8.354545   21.981818   26.544545  H         1 MOL        0.4238 ****
3680 Hw          8.863636   20.590909   26.626364  H         1 MOL        0.4238 ****
3681 Ow         10.018182   17.554545   28.117273  O         1 MOL       -0.8476 ****
3682 Hw          9.363636   17.600000   27.490000  H         1 MOL        0.4238 ****
3683 Hw          9.800000   16.927273   28.744545  H         1 MOL        0.4238 ****
3684 Ow         14.100000   22.563636   30.290000  O         1 MOL       -0.8476 ****
3685 Hw         13.827273   21.700000   30.353636  H         1 MOL        0.4238 ****
3686 Hw         14.763636   22.709091   30.890000  H         1 MOL        0.4238 ****
3687 Ow         15.245455   32.009091   36.044545  O         1 MOL       -0.8476 ****
3688 Hw         15.490909   32.318182   35.226364  H         1 MOL        0.4238 ****
3689 Hw         15.963636   31.663636   36.462727  H         1 MOL        0.4238 ****
3690 Ow          9.090909   18.009091   34.017273  O         1 MOL       -0.8476 ****
3691 Hw          9.318182   17.827273   33.153636  H         1 MOL        0.4238 ****
3692 Hw          9.745455   18.518182   34.399091  H         1 MOL        0.4238 ****
3693 Ow          9.681818   27.345455   36.899091  O         1 MOL       -0.8476 ****
3694 Hw          8.781818   27.400000   36.990000  H         1 MOL        0.4238 ****
3695 Hw          9.890909   26.618182   36.390000  H         1 MOL        0.4238 ****
3696 Ow          4.500000   24.590909   32.644545  O         1 MOL       -0.8476 ****
3697 Hw          5.281818   24.700000   33.099091  H         1 MOL        0.4238 ****
3698 Hw          4.118182   23.800000   32.890000  H         1 MOL        0.4238 ****
3699 Ow         12.354545   20.709091   32.744545  O         1 MOL       -0.8476 ****
3700 Hw         12.545455   21.381818   33.326364  H         1 MOL        0.4238 ****
3701 Hw         11.545455   20.863636   32.353636  H         1 MOL        0.4238 ****
3702 Ow          1.354545   31.418182   33.371818  O         1 MOL       -0.8476 ****
3703 Hw          0.936364   32.163636   33.062727  H         1 MOL        0.4238 ****
3704 Hw          2.245455   31.590909   33.453636  H         1 MOL        0.4238 ****
3705 Ow          4.109091   27.200000   25.826364  O         1 MOL       -0.8476 ****
3706 Hw          4.045455   27.954545   25.317273  H         1 MOL        0.4238 ****
3707 Hw          4.145455   26.472727   25.280909  H         1 MOL        0.4238 ****
3708 Ow         12.336364   30.336364   31.653636  O         1 MOL       -0.8476 ****
3709 Hw         12.763636   30.454545   32.444545  H         1 MOL        0.4238 ****
3710 Hw         11.736364   29.663636   31.735455  H         1 MOL        0.4238 ****
3711 Ow          3.990909   30.927273   33.353636  O         1 MOL       -0.8476 ****
3712 Hw          3.800000   30.527273   32.562727  H         1 MOL        0.4238 ****
3713 Hw          4.872727   31.163636   33.380909  H         1 MOL        0.4238 ****
3714 Ow          4.427273   24.027273   35.799091  O         1 MOL       -0.8476 ****
3715 Hw          5.045455   24.527273   35.371818  H         1 MOL        0.4238 ****
3716 Hw          4.790909   23.227273   36.044545  H         1 MOL        0.4238 ****
3717 Ow         15.200000   24.281818   36.453636  O         1 MOL       -0.8476 ****
3718 Hw         14.363636   24.627273   36.408182  H         1 MOL        0.4238 ****
3719 Hw         15.745455   24.709091   35.862727  H         1 MOL        0.4238 ****
3720 Ow          5.354545   17.654545   37.090000  O         1 MOL       -0.8476 ****
3721 Hw          4.972727   17.136364   36.453636  H         1 MOL        0.4238 ****
3722 Hw          4.754545   18.281818   37.380909  H         1 MOL        0.4238 ****
3723 Ow          5.981818   25.109091   30.626364  O         1 MOL       -0.8476 ****
3724 Hw          6.381818   25.918182   30.544545  H         1 MOL        0.4238 ****
3725 Hw          5.409091   25.109091   31.326364  H         1 MOL        0.4238 ****
3726 Ow         13.136364   25.036364   30.771818  O         1 MOL       -0.8476 ****
3727 Hw         12.454545   25.036364   30.171818  H         1 MOL        0.4238 ****
3728 Hw         13.472727   24.200000   30.853636  H         1 MOL        0.4238 ****
3729 Ow          1.109091   29.109091   32.926364  O         1 MOL       -0.8476 ****
3730 Hw          1.590909   28.663636   33.544545  H         1 MOL        0.4238 ****
3731 Hw          1.309091   30.000000   32.971818  H         1 MOL        0.4238 ****
3732 Ow          7.427273   22.963636   30.944545  O         1 MOL       -0.8476 ****
3733 Hw          7.963636   22.727273   30.253636  H         1 MOL        0.4238 ****
3734 Hw          7.172727   23.836364   30.844545  H         1 MOL        0.4238 ****
3735 Ow          3.563636   17.772727   26.890000  O         1 MOL       -0.8476 ****
3736 Hw          3.463636   18.627273   27.190000  H         1 MOL        0.4238 ****
3737 Hw          3.518182   17.200000   27.590000  H         1 MOL        0.4238 ****
3738 Ow         10.072727   24.163636   30.053636  O         1 MOL       -0.8476 ****
3739 Hw         10.209091   24.354545   30.926364  H         1 MOL        0.4238 ****
3740 Hw          9.800000   23.300000   29.971818  H         1 MOL        0.4238 ****
3741 Ow          0.745455   31.000000   35.862727  O         1 MOL       -0.8476 ****
3742 Hw          0.872727   31.245455   34.999091  H         1 MOL        0.4238 ****
3743 Hw          1.500000   31.200000   36.344545  H         1 MOL        0.4238 ****
3744 Ow          3.672727   24.563636   29.899091  O         1 MOL       -0.8476 ****
3745 Hw          4.518182   24.890909   29.944545  H         1 MOL        0.4238 ****
3746 Hw          3.618182   23.790909   30.371818  H         1 MOL        0.4238 ****
3747 Ow          3.854545   21.827273   30.417273  O         1 MOL       -0.8476 ****
3748 Hw          3.381818   21.072727   30.262727  H         1 MOL        0.4238 ****
3749 Hw          4.554545   21.872727   29.835455  H         1 MOL        0.4238 ****
3750 Ow         11.318182   19.081818   34.699091  O         1 MOL       -0.8476 ****
3751 Hw         11.318182   19.663636   35.399091  H         1 MOL        0.4238 ****
3752 Hw         11.572727   19.518182   33.944545  H         1 MOL        0.4238 ****
3753 Ow          1.572727   33.572727   29.699091  O         1 MOL       -0.8476 ****
3754 Hw          1.190909   32.790909   29.453636  H         1 MOL        0.4238 ****
3755 Hw          2.427273   33.600000   29.390000  H         1 MOL        0.4238 ****
3756 Ow          5.354545   31.454545   29.544545  O         1 MOL       -0.8476 ****
3757 Hw          5.954545   32.127273   29.626364  H         1 MOL        0.4238 ****
3758 Hw          5.754545   30.736364   29.162727  H         1 MOL        0.4238 ****
3759 Ow          9.881818   24.436364   32.526364  O         1 MOL       -0.8476 ****
3760 Hw         10.254545   24.145455   33.308182  H         1 MOL        0.4238 ****
3761 Hw          9.009091   24.190909   32.499091  H         1 MOL        0.4238 ****
3762 Ow          1.136364   22.145455   31.399091  O         1 MOL       -0.8476 ****
3763 Hw          1.909091   21.845455   31.026364  H         1 MOL        0.4238 ****
3764 Hw          1.254545   22.281818   32.290000  H         1 MOL        0.4238 ****
3765 Ow          2.490909   21.927273   36.926364  O         1 MOL       -0.8476 ****
3766 Hw          3.027273   21.563636   36.290000  H         1 MOL        0.4238 ****
3767 Hw          1.963636   22.572727   36.553636  H         1 MOL        0.4238 ****
3768 Ow         13.218182   25.836364   36.362727  O         1 MOL       -0.8476 ****
3769 Hw         13.572727   26.645455   36.544545  H         1 MOL        0.4238 ****
3770 Hw         13.309091   25.654545   35.480909  H         1 MOL        0.4238 ****
3771 Ow          8.181818   22.400000   24.226364  O         1 MOL       -0.8476 ****
3772 Hw          8.245455   21.590909   23.808182  H         1 MOL        0.4238 ****
3773 Hw          7.327273   22.709091   24.153636  H         1 MOL        0.4238 ****
3774 Ow         15.836364   22.690909   32.235455  O         1 MOL       -0.8476 ****
3775 Hw         15.490909   22.063636   32.799091  H         1 MOL        0.4238 ****
3776 Hw         16.581818   22.363636   31.835455  H         1 MOL        0.4238 ****
3777 Ow          6.872727   21.418182   32.808182  O         1 MOL       -0.8476 ****
3778 Hw          6.563636   20.609091   32.535455  H         1 MOL        0.4238 ****
3779 Hw          7.109091   21.909091   32.080909  H         1 MOL        0.4238 ****
3780 Ow          2.218182   27.536364   34.599091  O         1 MOL       -0.8476 ****
3781 Hw          2.418182   26.981818   35.290000  H         1 MOL        0.4238 ****
3782 Hw          2.309091   27.090909   33.817273  H         1 MOL        0.4238 ****
3783 Ow         13.018182   26.827273   32.490000  O         1 MOL       -0.8476 ****
3784 Hw         13.236364   26.254545   31.817273  H         1 MOL        0.4238 ****
3785 Hw         12.200000   27.190909   32.326364  H         1 MOL        0.4238 ****
3786 Ow         16.763636   33.081818   31.762727  O         1 MOL       -0.8476 ****
3787 Hw         17.318182   33.354545   31.099091  H         1 MOL        0.4238 ****
3788 Hw         16.418182   32.272727   31.562727  H         1 MOL        0.4238 ****
3789 Ow         12.154545   32.936364   31.526364  O         1 MOL       -0.8476 ****
3790 Hw         12.918182   32.981818   31.035455  H         1 MOL        0.4238 ****
3791 Hw         11.945455   32.063636   31.690000  H         1 MOL        0.4238 ****
3792 Ow          1.527273   28.636364   30.562727  O         1 MOL       -0.8476 ****
3793 Hw          1.481818   28.627273   31.471818  H         1 MOL        0.4238 ****
3794 Hw          0.772727   28.263636   30.217273  H         1 MOL        0.4238 ****
3795 Ow          8.318182   28.772727   34.199091  O         1 MOL       -0.8476 ****
3796 Hw          8.272727   29.072727   35.062727  H         1 MOL        0.4238 ****
3797 Hw          7.536364   28.945455   33.780909  H         1 MOL        0.4238 ****
3798 Ow         17.509091   18.790909   30.026364  O         1 MOL       -0.8476 ****
3799 Hw         17.863636   18.018182   29.699091  H         1 MOL        0.4238 ****
3800 Hw         16.618182   18.809091   29.853636  H         1 MOL        0.4238 ****
3801 Ow          4.154545   28.909091   34.817273  O         1 MOL       -0.8476 ****
3802 Hw          4.036364   29.754545   34.508182  H         1 MOL        0.4238 ****
3803 Hw          3.390909   28.436364   34.699091  H         1 MOL        0.4238 ****
3804 Ow         15.445455   28.945455   32.990000  O         1 MOL       -0.8476 ****
3805 Hw         15.990909   28.972727   33.717273  H         1 MOL        0.4238 ****
3806 Hw         14.763636   29.527273   33.108182  H         1 MOL        0.4238 ****
3807 Ow         16.309091   20.700000   33.826364  O         1 MOL       -0.8476 ****
3808 Hw         16.972727   21.327273   33.862727  H         1 MOL        0.4238 ****
3809 Hw         16.563636   20.018182   33.290000  H         1 MOL        0.4238 ****
3810 Ow          6.881818   19.045455   34.808182  O         1 MOL       -0.8476 ****
3811 Hw          7.700000   18.900000   34.444545  H         1 MOL        0.4238 ****
3812 Hw          6.954545   19.090909   35.708182  H         1 MOL        0.4238 ****
3813 Ow         13.863636   24.981818   33.980909  O         1 MOL       -0.8476 ****
3814 Hw         13.345455   25.454545   33.408182  H         1 MOL        0.4238 ****
3815 Hw         14.736364   25.090909   33.762727  H         1 MOL        0.4238 ****
3816 Ow         14.345455   33.263636   29.990000  O         1 MOL       -0.8476 ****
3817 Hw         14.645455   33.845455   29.362727  H         1 MOL        0.4238 ****
3818 Hw         14.945455   33.209091   30.671818  H         1 MOL        0.4238 ****
3819 Ow         15.990909   25.227273   32.671818  O         1 MOL       -0.8476 ****
3820 Hw         15.745455   24.418182   32.335455  H         1 MOL        0.4238 ****
3821 Hw         16.000000   25.845455   32.008182  H         1 MOL        0.4238 ****
3822 Ow          6.172727   23.972727   27.199091  O         1 MOL       -0.8476 ****
3823 Hw          6.627273   24.745455   27.026364  H         1 MOL        0.4238 ****
3824 Hw          5.372727   23.990909   26.762727  H         1 MOL        0.4238 ****
3825 Ow         16.927273   20.309091   36.199091  O         1 MOL       -0.8476 ****
3826 Hw         16.772727   20.590909   35.344545  H         1 MOL        0.4238 ****
3827 Hw         16.163636   19.972727   36.544545  H         1 MOL        0.4238 ****
3828 Ow          6.781818   33.472727   29.935455  O         1 MOL       -0.8476 ****
3829 Hw          6.363636   34.272727   29.817273  H         1 MOL        0.4238 ****
3830 Hw          7.681818   33.581818   29.871818  H         1 MOL        0.4238 ****
3831 Ow          8.581818   25.890909   29.099091  O         1 MOL       -0.8476 ****
3832 Hw          9.072727   25.263636   29.535455  H         1 MOL        0.4238 ****
3833 Hw          8.290909   26.518182   29.699091  H         1 MOL        0.4238 ****
3834 Ow          0.763636   31.463636   29.008182  O         1 MOL       -0.8476 ****
3835 Hw          0.118182   31.354545   28.371818  H         1 MOL        0.4238 ****
3836 Hw          0.772727   30.745455   29.553636  H         1 MOL        0.4238 ****
3837 Ow          1.490909   28.472727   27.208182  O         1 MOL       -0.8476 ****
3838 Hw          1.481818   28.045455   28.008182  H         1 MOL        0.4238 ****
3839 Hw          2.236364   28.218182   26.744545  H         1 MOL        0.4238 ****
3840 Ow         17.354545   18.945455   32.426364  O         1 MOL       -0.8476 ****
3841 Hw         17.318182   18.127273   32.826364  H         1 MOL        0.4238 ****
3842 Hw         17.381818   18.845455   31.526364  H         1 MOL        0.4238 ****
3843 Ow          4.663636   21.054545   25.999091  O         1 MOL       -0.8476 ****
3844 Hw          4.936364   20.400000   25.435455  H         1 MOL        0.4238 ****
3845 Hw          4.309091   20.690909   26.753636  H         1 MOL        0.4238 ****
3846 Ow          3.654545   22.172727   32.908182  O         1 MOL       -0.8476 ****
3847 Hw          4.000000   21.636364   33.562727  H         1 MOL        0.4238 ****
3848 Hw          4.018182   21.936364   32.108182  H         1 MOL        0.4238 ****
3849 Ow          8.154545   31.618182   27.517273  O         1 MOL       -0.8476 ****
3850 Hw          8.445455   31.709091   26.662727  H         1 MOL        0.4238 ****
3851 Hw          7.436364   31.054545   27.535455  H         1 MOL        0.4238 ****
3852 Ow         13.718182   19.145455   31.380909  O         1 MOL       -0.8476 ****
3853 Hw         14.190909   18.554545   31.880909  H         1 MOL        0.4238 ****
3854 Hw         13.272727   19.718182   31.935455  H         1 MOL        0.4238 ****
3855 Ow          9.872727   34.436364   31.762727  O         1 MOL       -0.8476 ****
3856 Hw          9.300000   33.781818   31.480909  H         1 MOL        0.4238 ****
3857 Hw         10.718182   34.109091   31.762727  H         1 MOL        0.4238 ****
3858 Ow         12.590909   21.318182   27.553636  O         1 MOL       -0.8476 ****
3859 Hw         12.054545   22.045455   27.590000  H         1 MOL        0.4238 ****
3860 Hw         12.727273   21.000000   28.399091  H         1 MOL        0.4238 ****
3861 Ow         15.254545   19.209091   29.290000  O         1 MOL       -0.8476 ****
3862 Hw         14.490909   19.200000   29.780909  H         1 MOL        0.4238 ****
3863 Hw         15.272727   19.963636   28.780909  H         1 MOL        0.4238 ****
3864 Ow         19.745455   19.700000   30.326364  O         1 MOL       -0.8476 ****
3865 Hw         20.063636   19.545455   31.162727  H         1 MOL        0.4238 ****
3866 Hw         18.945455   19.290909   30.217273  H         1 MOL        0.4238 ****
3867 Ow         22.872727   28.790909   31.862727  O         1 MOL       -0.8476 ****
3868 Hw         22.027273   28.727273   31.526364  H         1 MOL        0.4238 ****
3869 Hw         22.972727   29.600000   32.262727  H         1 MOL        0.4238 ****
3870 Ow         28.018182   23.590909   27.790000  O         1 MOL       -0.8476 ****
3871 Hw         28.536364   24.300000   27.562727  H         1 MOL        0.4238 ****
3872 Hw         27.472727   23.827273   28.480909  H         1 MOL        0.4238 ****
3873 Ow         23.927273   26.400000   27.317273  O         1 MOL       -0.8476 ****
3874 Hw         24.554545   26.254545   27.953636  H         1 MOL        0.4238 ****
3875 Hw         23.263636   26.918182   27.662727  H         1 MOL        0.4238 ****
3876 Ow         20.745455   30.245455   30.917273  O         1 MOL       -0.8476 ****
3877 Hw         20.036364   29.963636   30.435455  H         1 MOL        0.4238 ****
3878 Hw         21.272727   30.772727   30.399091  H         1 MOL        0.4238 ****
3879 Ow         21.681818   20.763636   34.899091  O         1 MOL       -0.8476 ****
3880 Hw         22.427273   20.254545   34.980909  H         1 MOL        0.4238 ****
3881 Hw         20.945455   20.236364   34.935455  H         1 MOL        0.4238 ****
3882 Ow         19.790909   30.236364   26.162727  O         1 MOL       -0.8476 ****
3883 Hw         19.554545   31.109091   26.162727  H         1 MOL        0.4238 ****
3884 Hw         19.145455   29.745455   26.571818  H         1 MOL        0.4238 ****
3885 Ow         19.881818   27.118182   29.326364  O         1 MOL       -0.8476 ****
3886 Hw         20.009091   26.354545   29.799091  H         1 MOL        0.4238 ****
3887 Hw         19.381818   27.700000   29.826364  H         1 MOL        0.4238 ****
3888 Ow         23.336364   33.436364   34.353636  O         1 MOL       -0.8476 ****
3889 Hw         22.500000   33.281818   34.671818  H         1 MOL        0.4238 ****
3890 Hw         23.590909   34.272727   34.590000  H         1 MOL        0.4238 ****
3891 Ow         18.809091   23.045455   26.390000  O         1 MOL       -0.8476 ****
3892 Hw         18.400000   22.245455   26.544545  H         1 MOL        0.4238 ****
3893 Hw         18.800000   23.536364   27.153636  H         1 MOL        0.4238 ****
3894 Ow         18.727273   23.900000   35.790000  O         1 MOL       -0.8476 ****
3895 Hw         19.527273   23.781818   36.199091  H         1 MOL        0.4238 ****
3896 Hw         18.609091   24.781818   35.590000  H         1 MOL        0.4238 ****
3897 Ow         23.272727   29.609091   27.871818  O         1 MOL       -0.8476 ****
3898 Hw         22.827273   28.818182   27.953636  H         1 MOL        0.4238 ****
3899 Hw         23.063636   30.000000   27.080909  H         1 MOL        0.4238 ****
3900 Ow         29.454545   28.363636   34.208182  O         1 MOL       -0.8476 ****
3901 Hw         29.790909   27.700000   33.680909  H         1 MOL        0.4238 ****
3902 Hw         29.927273   28.409091   34.980909  H         1 MOL        0.4238 ****
3903 Ow         19.490909   26.072727   32.762727  O         1 MOL       -0.8476 ****
3904 Hw         20.300000   25.663636   32.635455  H         1 MOL        0.4238 ****
3905 Hw         18.827273   25.481818   32.590000  H         1 MOL        0.4238 ****
3906 Ow         28.490909   33.490909   35.962727  O         1 MOL       -0.8476 ****
3907 Hw         28.709091   34.036364   35.271818  H         1 MOL        0.4238 ****
3908 Hw         28.554545   32.627273   35.690000  H         1 MOL        0.4238 ****
3909 Ow         25.036364   22.700000   34.590000  O         1 MOL       -0.8476 ****
3910 Hw         24.609091   22.672727   35.399091  H         1 MOL        0.4238 ****
3911 Hw         24.572727   22.200000   33.990000  H         1 MOL        0.4238 ****
3912 Ow         26.545455   25.290909   35.562727  O         1 MOL       -0.8476 ****
3913 Hw         26.963636   24.527273   35.299091  H         1 MOL        0.4238 ****
3914 Hw         26.036364   25.600000   34.880909  H         1 MOL        0.4238 ****
3915 Ow         26.709091   20.927273   32.562727  O         1 MOL       -0.8476 ****
3916 Hw         26.009091   21.236364   33.053636  H         1 MOL        0.4238 ****
3917 Hw         26.400000   20.463636   31.844545  H         1 MOL        0.4238 ****
3918 Ow         18.390909   24.572727   28.444545  O         1 MOL       -0.8476 ****
3919 Hw         19.290909   24.463636   28.526364  H         1 MOL        0.4238 ****
3920 Hw         18.172727   25.436364   28.635455  H         1 MOL        0.4238 ****
3921 Ow         18.881818   33.754545   35.553636  O         1 MOL       -0.8476 ****
3922 Hw         18.790909   33.618182   36.453636  H         1 MOL        0.4238 ****
3923 Hw         18.100000   34.081818   35.226364  H         1 MOL        0.4238 ****
3924 Ow         22.700000   18.981818   29.317273  O         1 MOL       -0.8476 ****
3925 Hw         22.654545   18.936364   30.226364  H         1 MOL        0.4238 ****
3926 Hw         22.718182   19.854545   29.053636  H         1 MOL        0.4238 ****
3927 Ow         20.890909   33.572727   29.026364  O         1 MOL       -0.8476 ****
3928 Hw         21.345455   32.790909   29.080909  H         1 MOL        0.4238 ****
3929 Hw         21.481818   34.272727   28.999091  H         1 MOL        0.4238 ****
3930 Ow         28.854545   31.290909   34.962727  O         1 MOL       -0.8476 ****
3931 Hw         28.909091   30.590909   35.544545  H         1 MOL        0.4238 ****
3932 Hw         28.381818   31.054545   34.235455  H         1 MOL        0.4238 ****
3933 Ow         19.963636   33.427273   32.553636  O         1 MOL       -0.8476 ****
3934 Hw         20.481818   32.836364   33.008182  H         1 MOL        0.4238 ****
3935 Hw         19.818182   33.127273   31.708182  H         1 MOL        0.4238 ****
3936 Ow         25.772727   30.963636   32.135455  O         1 MOL       -0.8476 ****
3937 Hw         25.563636   30.736364   31.280909  H         1 MOL        0.4238 ****
3938 Hw         26.327273   30.336364   32.490000  H         1 MOL        0.4238 ****
3939 Ow         25.000000   29.945455   29.671818  O         1 MOL       -0.8476 ****
3940 Hw         25.818182   30.072727   29.290000  H         1 MOL        0.4238 ****
3941 Hw         24.354545   29.963636   29.026364  H         1 MOL        0.4238 ****
3942 Ow         26.081818   21.772727   29.444545  O         1 MOL       -0.8476 ****
3943 Hw         25.854545   21.690909   28.571818  H         1 MOL        0.4238 ****
3944 Hw         26.518182   21.027273   29.726364  H         1 MOL        0.4238 ****
3945 Ow         28.854545   31.472727   28.480909  O         1 MOL       -0.8476 ****
3946 Hw         29.045455   32.145455   27.890000  H         1 MOL        0.4238 ****
3947 Hw         29.472727   31.472727   29.144545  H         1 MOL        0.4238 ****
3948 Ow         21.872727   27.672727   28.008182  O         1 MOL       -0.8476 ****
3949 Hw         21.227273   27.427273   28.599091  H         1 MOL        0.4238 ****
3950 Hw         21.636364   27.418182   27.162727  H         1 MOL        0.4238 ****
3951 Ow         29.254545   33.536364   26.644545  O         1 MOL       -0.8476 ****
3952 Hw         29.654545   34.118182   26.062727  H         1 MOL        0.4238 ****
3953 Hw         28.800000   34.009091   27.280909  H         1 MOL        0.4238 ****
3954 Ow         18.409091   22.254545   33.871818  O         1 MOL       -0.8476 ****
3955 Hw         19.245455   22.245455   33.499091  H         1 MOL        0.4238 ****
3956 Hw         18.354545   22.927273   34.480909  H         1 MOL        0.4238 ****
3957 Ow         22.800000   19.218182   31.699091  O         1 MOL       -0.8476 ****
3958 Hw         23.145455   18.454545   32.035455  H         1 MOL        0.4238 ****
3959 Hw         22.000000   19.390909   32.099091  H         1 MOL        0.4238 ****
3960 Ow         25.572727   21.327273   27.108182  O         1 MOL       -0.8476 ****
3961 Hw         25.281818   21.981818   26.544545  H         1 MOL        0.4238 ****
3962 Hw         25.790909   20.590909   26.626364  H         1 MOL        0.4238 ****
3963 Ow         26.945455   17.554545   28.117273  O         1 MOL       -0.8476 ****
3964 Hw         26.290909   17.600000   27.490000  H         1 MOL        0.4238 ****
3965 Hw         26.727273   16.927273   28.744545  H         1 MOL        0.4238 ****
3966 Ow         27.372727   29.445455   33.453636  O         1 MOL       -0.8476 ****
3967 Hw         26.645455   29.236364   33.953636  H         1 MOL        0.4238 ****
3968 Hw         28.127273   29.209091   33.899091  H         1 MOL        0.4238 ****
3969 Ow         27.800000   28.063636   31.271818  O         1 MOL       -0.8476 ****
3970 Hw         27.436364   28.463636   32.008182  H         1 MOL        0.4238 ****
3971 Hw         27.427273   28.400000   30.517273  H         1 MOL        0.4238 ****
3972 Ow         26.018182   18.009091   34.017273  O         1 MOL       -0.8476 ****
3973 Hw         26.245455   17.827273   33.153636  H         1 MOL        0.4238 ****
3974 Hw         26.672727   18.518182   34.399091  H         1 MOL        0.4238 ****
3975 Ow         21.427273   24.590909   32.644545  O         1 MOL       -0.8476 ****
3976 Hw         22.209091   24.700000   33.099091  H         1 MOL        0.4238 ****
3977 Hw         21.045455   23.800000   32.890000  H         1 MOL        0.4238 ****
3978 Ow         18.281818   31.418182   33.371818  O         1 MOL       -0.8476 ****
3979 Hw         17.863636   32.163636   33.062727  H         1 MOL        0.4238 ****
3980 Hw         19.172727   31.590909   33.453636  H         1 MOL        0.4238 ****
3981 Ow         21.036364   27.200000   25.826364  O         1 MOL       -0.8476 ****
3982 Hw         20.972727   27.954545   25.317273  H         1 MOL        0.4238 ****
3983 Hw         21.072727   26.472727   25.280909  H         1 MOL        0.4238 ****
3984 Ow         29.263636   30.336364   31.653636  O         1 MOL       -0.8476 ****
3985 Hw         29.690909   30.454545   32.444545  H         1 MOL        0.4238 ****
3986 Hw         28.663636   29.663636   31.735455  H         1 MOL        0.4238 ****
3987 Ow         20.918182   30.927273   33.353636  O         1 MOL       -0.8476 ****
3988 Hw         20.727273   30.527273   32.562727  H         1 MOL        0.4238 ****
3989 Hw         21.800000   31.163636   33.380909  H         1 MOL        0.4238 ****
3990 Ow         21.354545   24.027273   35.799091  O         1 MOL       -0.8476 ****
3991 Hw         21.972727   24.527273   35.371818  H         1 MOL        0.4238 ****
3992 Hw         21.718182   23.227273   36.044545  H         1 MOL        0.4238 ****
3993 Ow         30.063636   25.036364   30.771818  O         1 MOL       -0.8476 ****
3994 Hw         29.381818   25.036364   30.171818  H         1 MOL        0.4238 ****
3995 Hw         30.400000   24.200000   30.853636  H         1 MOL        0.4238 ****
3996 Ow         24.354545   22.963636   30.944545  O         1 MOL       -0.8476 ****
3997 Hw         24.890909   22.727273   30.253636  H         1 MOL        0.4238 ****
3998 Hw         24.100000   23.836364   30.844545  H         1 MOL        0.4238 ****
3999 Ow         20.490909   17.772727   26.890000  O         1 MOL       -0.8476 ****
4000 Hw         20.390909   18.627273   27.190000  H         1 MOL        0.4238 ****
4001 Hw         20.445455   17.200000   27.590000  H         1 MOL        0.4238 ****
4002 Ow         26.609091   31.500000   36.726364  O         1 MOL       -0.8476 ****
4003 Hw         26.427273   31.900000   35.926364  H         1 MOL        0.4238 ****
4004 Hw         26.963636   30.672727   36.580909  H         1 MOL        0.4238 ****
4005 Ow         17.672727   31.000000   35.862727  O         1 MOL       -0.8476 ****
4006 Hw         17.800000   31.245455   34.999091  H         1 MOL        0.4238 ****
4007 Hw         18.427273   31.200000   36.344545  H         1 MOL        0.4238 ****
4008 Ow         27.409091   29.318182   28.990000  O         1 MOL       -0.8476 ****
4009 Hw         27.472727   28.554545   28.490000  H         1 MOL        0.4238 ****
4010 Hw         27.972727   29.945455   28.662727  H         1 MOL        0.4238 ****
4011 Ow         20.600000   24.563636   29.899091  O         1 MOL       -0.8476 ****
4012 Hw         21.445455   24.890909   29.944545  H         1 MOL        0.4238 ****
4013 Hw         20.545455   23.790909   30.371818  H         1 MOL        0.4238 ****
4014 Ow         28.045455   20.654545   36.526364  O         1 MOL       -0.8476 ****
4015 Hw         27.636364   21.227273   37.108182  H         1 MOL        0.4238 ****
4016 Hw         28.890909   20.936364   36.371818  H         1 MOL        0.4238 ****
4017 Ow         28.245455   19.081818   34.699091  O         1 MOL       -0.8476 ****
4018 Hw         28.245455   19.663636   35.399091  H         1 MOL        0.4238 ****
4019 Hw         28.500000   19.518182   33.944545  H         1 MOL        0.4238 ****
4020 Ow         18.500000   33.572727   29.699091  O         1 MOL       -0.8476 ****
4021 Hw         18.118182   32.790909   29.453636  H         1 MOL        0.4238 ****
4022 Hw         19.354545   33.600000   29.390000  H         1 MOL        0.4238 ****
4023 Ow         22.281818   31.454545   29.544545  O         1 MOL       -0.8476 ****
4024 Hw         22.881818   32.127273   29.626364  H         1 MOL        0.4238 ****
4025 Hw         22.681818   30.736364   29.162727  H         1 MOL        0.4238 ****
4026 Ow         18.063636   22.145455   31.399091  O         1 MOL       -0.8476 ****
4027 Hw         18.836364   21.845455   31.026364  H         1 MOL        0.4238 ****
4028 Hw         18.181818   22.281818   32.290000  H         1 MOL        0.4238 ****
4029 Ow         30.145455   25.836364   36.362727  O         1 MOL       -0.8476 ****
4030 Hw         30.500000   26.645455   36.544545  H         1 MOL        0.4238 ****
4031 Hw         30.236364   25.654545   35.480909  H         1 MOL        0.4238 ****
4032 Ow         23.800000   21.418182   32.808182  O         1 MOL       -0.8476 ****
4033 Hw         23.490909   20.609091   32.535455  H         1 MOL        0.4238 ****
4034 Hw         24.036364   21.909091   32.080909  H         1 MOL        0.4238 ****
4035 Ow         19.145455   27.536364   34.599091  O         1 MOL       -0.8476 ****
4036 Hw         19.345455   26.981818   35.290000  H         1 MOL        0.4238 ****
4037 Hw         19.236364   27.090909   33.817273  H         1 MOL        0.4238 ****
4038 Ow         29.945455   26.827273   32.490000  O         1 MOL       -0.8476 ****
4039 Hw         30.163636   26.254545   31.817273  H         1 MOL        0.4238 ****
4040 Hw         29.127273   27.190909   32.326364  H         1 MOL        0.4238 ****
4041 Ow         29.081818   32.936364   31.526364  O         1 MOL       -0.8476 ****
4042 Hw         29.845455   32.981818   31.035455  H         1 MOL        0.4238 ****
4043 Hw         28.872727   32.063636   31.690000  H         1 MOL        0.4238 ****
4044 Ow         18.454545   28.636364   30.562727  O         1 MOL       -0.8476 ****
4045 Hw         18.409091   28.627273   31.471818  H         1 MOL        0.4238 ****
4046 Hw         17.700000   28.263636   30.217273  H         1 MOL        0.4238 ****
4047 Ow         29.336364   25.627273   27.380909  O         1 MOL       -0.8476 ****
4048 Hw         29.881818   24.890909   27.399091  H         1 MOL        0.4238 ****
4049 Hw         29.700000   26.254545   26.835455  H         1 MOL        0.4238 ****
4050 Ow         25.245455   28.772727   34.199091  O         1 MOL       -0.8476 ****
4051 Hw         25.200000   29.072727   35.062727  H         1 MOL        0.4238 ****
4052 Hw         24.463636   28.945455   33.780909  H         1 MOL        0.4238 ****
4053 Ow         25.172727   26.309091   33.744545  O         1 MOL       -0.8476 ****
4054 Hw         25.536364   26.300000   32.908182  H         1 MOL        0.4238 ****
4055 Hw         25.263636   27.145455   34.108182  H         1 MOL        0.4238 ****
4056 Ow         21.081818   28.909091   34.817273  O         1 MOL       -0.8476 ****
4057 Hw         20.963636   29.754545   34.508182  H         1 MOL        0.4238 ****
4058 Hw         20.318182   28.436364   34.699091  H         1 MOL        0.4238 ****
4059 Ow         27.145455   27.181818   27.599091  O         1 MOL       -0.8476 ****
4060 Hw         26.509091   26.754545   28.090000  H         1 MOL        0.4238 ****
4061 Hw         27.681818   26.563636   27.208182  H         1 MOL        0.4238 ****
4062 Ow         26.918182   19.345455   30.099091  O         1 MOL       -0.8476 ****
4063 Hw         26.845455   19.018182   29.253636  H         1 MOL        0.4238 ****
4064 Hw         26.900000   18.654545   30.690000  H         1 MOL        0.4238 ****
4065 Ow         23.809091   19.045455   34.808182  O         1 MOL       -0.8476 ****
4066 Hw         24.627273   18.900000   34.444545  H         1 MOL        0.4238 ****
4067 Hw         23.881818   19.090909   35.708182  H         1 MOL        0.4238 ****
4068 Ow         23.272727   24.854545   34.280909  O         1 MOL       -0.8476 ****
4069 Hw         23.781818   25.590909   34.126364  H         1 MOL        0.4238 ****
4070 Hw         23.809091   24.127273   34.308182  H         1 MOL        0.4238 ****
4071 Ow         21.245455   33.027273   35.453636  O         1 MOL       -0.8476 ****
4072 Hw         20.418182   33.400000   35.435455  H         1 MOL        0.4238 ****
4073 Hw         21.181818   32.172727   35.744545  H         1 MOL        0.4238 ****
4074 Ow         23.709091   33.472727   29.935455  O         1 MOL       -0.8476 ****
4075 Hw         23.290909   34.272727   29.817273  H         1 MOL        0.4238 ****
4076 Hw         24.609091   33.581818   29.871818  H         1 MOL        0.4238 ****
4077 Ow         25.509091   25.890909   29.099091  O         1 MOL       -0.8476 ****
4078 Hw         26.000000   25.263636   29.535455  H         1 MOL        0.4238 ****
4079 Hw         25.218182   26.518182   29.699091  H         1 MOL        0.4238 ****
4080 Ow         18.418182   28.472727   27.208182  O         1 MOL       -0.8476 ****
4081 Hw         18.409091   28.045455   28.008182  H         1 MOL        0.4238 ****
4082 Hw         19.163636   28.218182   26.744545  H         1 MOL        0.4238 ****
4083 Ow         23.809091   29.845455   36.035455  O         1 MOL       -0.8476 ****
4084 Hw         23.100000   29.390909   36.380909  H         1 MOL        0.4238 ****
4085 Hw         23.781818   30.709091   36.317273  H         1 MOL        0.4238 ****
4086 Ow         20.581818   22.172727   32.908182  O         1 MOL       -0.8476 ****
4087 Hw         20.927273   21.636364   33.562727  H         1 MOL        0.4238 ****
4088 Hw         20.945455   21.936364   32.108182  H         1 MOL        0.4238 ****
4089 Ow         25.081818   31.618182   27.517273  O         1 MOL       -0.8476 ****
4090 Hw         25.372727   31.709091   26.662727  H         1 MOL        0.4238 ****
4091 Hw         24.363636   31.054545   27.535455  H         1 MOL        0.4238 ****
4092 Ow         26.800000   34.436364   31.762727  O         1 MOL       -0.8476 ****
4093 Hw         26.227273   33.781818   31.480909  H         1 MOL        0.4238 ****
4094 Hw         27.645455   34.109091   31.762727  H         1 MOL        0.4238 ****
4095 Ow         23.318182   31.445455   32.944545  O         1 MOL       -0.8476 ****
4096 Hw         23.272727   32.190909   33.462727  H         1 MOL        0.4238 ****
4097 Hw         24.127273   31.418182   32.535455  H         1 MOL        0.4238 ****
4098 Ow         29.518182   21.318182   27.553636  O         1 MOL       -0.8476 ****
4099 Hw         28.981818   22.045455   27.590000  H         1 MOL        0.4238 ****
4100 Hw         29.654545   21.000000   28.399091  H         1 MOL        0.4238 ****
4101 Ow         10.018182   34.482909   28.117273  O         1 MOL       -0.8476 ****
4102 Hw          9.363636   34.528364   27.490000  H         1 MOL        0.4238 ****
4103 Hw          9.800000   33.855636   28.744545  H         1 MOL        0.4238 ****
4104 Ow          9.090909   34.937455   34.017273  O         1 MOL       -0.8476 ****
4105 Hw          9.318182   34.755636   33.153636  H         1 MOL        0.4238 ****
4106 Hw          9.745455   35.446545   34.399091  H         1 MOL        0.4238 ****
4107 Ow         16.463636   35.355636   26.026364  O         1 MOL       -0.8476 ****
4108 Hw         17.127273   35.201091   25.417273  H         1 MOL        0.4238 ****
4109 Hw         16.181818   34.564727   26.371818  H         1 MOL        0.4238 ****
4110 Ow         26.945455   34.482909   28.117273  O         1 MOL       -0.8476 ****
4111 Hw         26.290909   34.528364   27.490000  H         1 MOL        0.4238 ****
4112 Hw         26.727273   33.855636   28.744545  H         1 MOL        0.4238 ****
@<TRIPOS>BOND
    1     1     4 1
    2     1     5 1
    3     1     6 1
    4     1    24 1
    5     1    35 1
    6     1    36 1
    7     2     4 1
    8     2     8 1
    9     2   737 1
   10     2   779 1
   11     3     5 1
   12     3     8 1
   13     3     9 1
   14     3    47 1
   15     4   741 1
   16     5    71 1
   17     6    10 1
   18     6    31 1
   19     7    12 1
   20     7   203 1
   21     9    12 1
   22    11    14 1
   23    11    15 1
   24    11    25 1
   25    11   216 1
   26    11   226 1
   27    11   234 1
   28    12    14 1
   29    12    18 1
   30    13    15 1
   31    13    17 1
   32    13    18 1
   33    13    19 1
   34    14    31 1
   35    15    21 1
   36    16    20 1
   37    16    21 1
   38    16    51 1
   39    17   242 1
   40    19   442 1
   41    21    25 1
   42    21    26 1
   43    21   244 1
   44    21   264 1
   45    22    24 1
   46    22    37 1
   47    22   239 1
   48    22   748 1
   49    23    25 1
   50    23    28 1
   51    23    29 1
   52    23   227 1
   53    24   741 1
   54    26    30 1
   55    26    51 1
   56    27    32 1
   57    27    63 1
   58    28   262 1
   59    29    32 1
   60    31    36 1
   61    31   205 1
   62    31   234 1
   63    31   235 1
   64    32    34 1
   65    32    38 1
   66    33    35 1
   67    33    37 1
   68    33    38 1
   69    33    39 1
   70    34    51 1
   71    34    71 1
   72    35    71 1
   73    36    40 1
   74    39    62 1
   75    41    44 1
   76    41    45 1
   77    41    46 1
   78    41    64 1
   79    41    75 1
   80    41    76 1
   81    42    44 1
   82    42    48 1
   83    42   777 1
   84    42   819 1
   85    43    45 1
   86    43    48 1
   87    43    49 1
   88    43    87 1
   89    44   781 1
   90    45   111 1
   91    46    50 1
   92    46    71 1
   93    47    52 1
   94    49    52 1
   95    51    54 1
   96    51    55 1
   97    51    65 1
   98    52    54 1
   99    52    58 1
  100    53    55 1
  101    53    57 1
  102    53    58 1
  103    53    59 1
  104    54    71 1
  105    55    61 1
  106    56    60 1
  107    56    61 1
  108    56    91 1
  109    57   282 1
  110    59   242 1
  111    61    65 1
  112    61    66 1
  113    61   284 1
  114    61   304 1
  115    62    64 1
  116    62    77 1
  117    62   788 1
  118    63    65 1
  119    63    68 1
  120    63    69 1
  121    64   781 1
  122    66    70 1
  123    66    91 1
  124    67    72 1
  125    67   103 1
  126    68   302 1
  127    69    72 1
  128    71    76 1
  129    72    74 1
  130    72    78 1
  131    73    75 1
  132    73    77 1
  133    73    78 1
  134    73    79 1
  135    74    91 1
  136    74   111 1
  137    75   111 1
  138    76    80 1
  139    79   102 1
  140    81    84 1
  141    81    85 1
  142    81    86 1
  143    81   104 1
  144    81   115 1
  145    81   116 1
  146    82    84 1
  147    82    88 1
  148    82   817 1
  149    82   859 1
  150    83    85 1
  151    83    88 1
  152    83    89 1
  153    83   127 1
  154    84   821 1
  155    85   151 1
  156    86    90 1
  157    86   111 1
  158    87    92 1
  159    89    92 1
  160    91    94 1
  161    91    95 1
  162    91   105 1
  163    92    94 1
  164    92    98 1
  165    93    95 1
  166    93    97 1
  167    93    98 1
  168    93    99 1
  169    94   111 1
  170    95   101 1
  171    96   100 1
  172    96   101 1
  173    96   131 1
  174    97   322 1
  175    99   282 1
  176   101   105 1
  177   101   106 1
  178   101   324 1
  179   101   344 1
  180   102   104 1
  181   102   117 1
  182   102   828 1
  183   103   105 1
  184   103   108 1
  185   103   109 1
  186   104   821 1
  187   106   110 1
  188   106   131 1
  189   107   112 1
  190   107   143 1
  191   108   342 1
  192   109   112 1
  193   111   116 1
  194   112   114 1
  195   112   118 1
  196   113   115 1
  197   113   117 1
  198   113   118 1
  199   113   119 1
  200   114   131 1
  201   114   151 1
  202   115   151 1
  203   116   120 1
  204   119   142 1
  205   121   124 1
  206   121   125 1
  207   121   126 1
  208   121   144 1
  209   121   155 1
  210   121   156 1
  211   122   124 1
  212   122   128 1
  213   122   857 1
  214   122   899 1
  215   123   125 1
  216   123   128 1
  217   123   129 1
  218   123   167 1
  219   124   861 1
  220   125   191 1
  221   126   130 1
  222   126   151 1
  223   127   132 1
  224   129   132 1
  225   131   134 1
  226   131   135 1
  227   131   145 1
  228   132   134 1
  229   132   138 1
  230   133   135 1
  231   133   137 1
  232   133   138 1
  233   133   139 1
  234   134   151 1
  235   135   141 1
  236   136   140 1
  237   136   141 1
  238   136   171 1
  239   137   362 1
  240   139   322 1
  241   141   145 1
  242   141   146 1
  243   141   364 1
  244   141   384 1
  245   142   144 1
  246   142   157 1
  247   142   868 1
  248   143   145 1
  249   143   148 1
  250   143   149 1
  251   144   861 1
  252   146   150 1
  253   146   171 1
  254   147   152 1
  255   147   183 1
  256   148   382 1
  257   149   152 1
  258   151   156 1
  259   152   154 1
  260   152   158 1
  261   153   155 1
  262   153   157 1
  263   153   158 1
  264   153   159 1
  265   154   171 1
  266   154   191 1
  267   155   191 1
  268   156   160 1
  269   159   182 1
  270   161   164 1
  271   161   165 1
  272   161   166 1
  273   161   184 1
  274   161   195 1
  275   161   196 1
  276   162   164 1
  277   162   168 1
  278   162   897 1
  279   162   939 1
  280   163   165 1
  281   163   168 1
  282   163   169 1
  283   163   207 1
  284   164   901 1
  285   165   231 1
  286   166   170 1
  287   166   191 1
  288   167   172 1
  289   169   172 1
  290   171   174 1
  291   171   175 1
  292   171   185 1
  293   172   174 1
  294   172   178 1
  295   173   175 1
  296   173   177 1
  297   173   178 1
  298   173   179 1
  299   174   191 1
  300   175   181 1
  301   176   180 1
  302   176   181 1
  303   176   211 1
  304   177   402 1
  305   179   362 1
  306   181   185 1
  307   181   186 1
  308   181   404 1
  309   181   424 1
  310   182   184 1
  311   182   197 1
  312   182   908 1
  313   183   185 1
  314   183   188 1
  315   183   189 1
  316   184   901 1
  317   186   190 1
  318   186   211 1
  319   187   192 1
  320   187   223 1
  321   188   422 1
  322   189   192 1
  323   191   196 1
  324   192   194 1
  325   192   198 1
  326   193   195 1
  327   193   197 1
  328   193   198 1
  329   193   199 1
  330   194   211 1
  331   194   231 1
  332   195   231 1
  333   196   200 1
  334   199   222 1
  335   201   204 1
  336   201   205 1
  337   201   206 1
  338   201   224 1
  339   201   235 1
  340   201   236 1
  341   202   204 1
  342   202   208 1
  343   202   739 1
  344   202   937 1
  345   203   205 1
  346   203   208 1
  347   203   209 1
  348   204   941 1
  349   206   210 1
  350   206   231 1
  351   207   212 1
  352   209   212 1
  353   211   214 1
  354   211   215 1
  355   211   225 1
  356   212   214 1
  357   212   218 1
  358   213   215 1
  359   213   217 1
  360   213   218 1
  361   213   219 1
  362   214   231 1
  363   215   221 1
  364   216   220 1
  365   216   221 1
  366   217   442 1
  367   219   402 1
  368   221   225 1
  369   221   226 1
  370   221   444 1
  371   221   464 1
  372   222   224 1
  373   222   237 1
  374   222   948 1
  375   223   225 1
  376   223   228 1
  377   223   229 1
  378   224   941 1
  379   226   230 1
  380   227   232 1
  381   228   462 1
  382   229   232 1
  383   231   236 1
  384   232   234 1
  385   232   238 1
  386   233   235 1
  387   233   237 1
  388   233   238 1
  389   233   239 1
  390   236   240 1
  391   241   244 1
  392   241   245 1
  393   241   246 1
  394   241   264 1
  395   241   275 1
  396   241   276 1
  397   242   244 1
  398   242   248 1
  399   243   245 1
  400   243   248 1
  401   243   249 1
  402   243   287 1
  403   245   311 1
  404   246   250 1
  405   246   271 1
  406   247   252 1
  407   247   443 1
  408   249   252 1
  409   251   254 1
  410   251   255 1
  411   251   265 1
  412   251   456 1
  413   251   466 1
  414   251   474 1
  415   252   254 1
  416   252   258 1
  417   253   255 1
  418   253   257 1
  419   253   258 1
  420   253   259 1
  421   254   271 1
  422   255   261 1
  423   256   260 1
  424   256   261 1
  425   256   291 1
  426   257   482 1
  427   259   682 1
  428   261   265 1
  429   261   266 1
  430   261   484 1
  431   261   504 1
  432   262   264 1
  433   262   277 1
  434   262   479 1
  435   263   265 1
  436   263   268 1
  437   263   269 1
  438   263   467 1
  439   266   270 1
  440   266   291 1
  441   267   272 1
  442   267   303 1
  443   268   502 1
  444   269   272 1
  445   271   276 1
  446   271   445 1
  447   271   474 1
  448   271   475 1
  449   272   274 1
  450   272   278 1
  451   273   275 1
  452   273   277 1
  453   273   278 1
  454   273   279 1
  455   274   291 1
  456   274   311 1
  457   275   311 1
  458   276   280 1
  459   279   302 1
  460   281   284 1
  461   281   285 1
  462   281   286 1
  463   281   304 1
  464   281   315 1
  465   281   316 1
  466   282   284 1
  467   282   288 1
  468   283   285 1
  469   283   288 1
  470   283   289 1
  471   283   327 1
  472   285   351 1
  473   286   290 1
  474   286   311 1
  475   287   292 1
  476   289   292 1
  477   291   294 1
  478   291   295 1
  479   291   305 1
  480   292   294 1
  481   292   298 1
  482   293   295 1
  483   293   297 1
  484   293   298 1
  485   293   299 1
  486   294   311 1
  487   295   301 1
  488   296   300 1
  489   296   301 1
  490   296   331 1
  491   297   522 1
  492   299   482 1
  493   301   305 1
  494   301   306 1
  495   301   524 1
  496   301   544 1
  497   302   304 1
  498   302   317 1
  499   303   305 1
  500   303   308 1
  501   303   309 1
  502   306   310 1
  503   306   331 1
  504   307   312 1
  505   307   343 1
  506   308   542 1
  507   309   312 1
  508   311   316 1
  509   312   314 1
  510   312   318 1
  511   313   315 1
  512   313   317 1
  513   313   318 1
  514   313   319 1
  515   314   331 1
  516   314   351 1
  517   315   351 1
  518   316   320 1
  519   319   342 1
  520   321   324 1
  521   321   325 1
  522   321   326 1
  523   321   344 1
  524   321   355 1
  525   321   356 1
  526   322   324 1
  527   322   328 1
  528   323   325 1
  529   323   328 1
  530   323   329 1
  531   323   367 1
  532   325   391 1
  533   326   330 1
  534   326   351 1
  535   327   332 1
  536   329   332 1
  537   331   334 1
  538   331   335 1
  539   331   345 1
  540   332   334 1
  541   332   338 1
  542   333   335 1
  543   333   337 1
  544   333   338 1
  545   333   339 1
  546   334   351 1
  547   335   341 1
  548   336   340 1
  549   336   341 1
  550   336   371 1
  551   337   562 1
  552   339   522 1
  553   341   345 1
  554   341   346 1
  555   341   564 1
  556   341   584 1
  557   342   344 1
  558   342   357 1
  559   343   345 1
  560   343   348 1
  561   343   349 1
  562   346   350 1
  563   346   371 1
  564   347   352 1
  565   347   383 1
  566   348   582 1
  567   349   352 1
  568   351   356 1
  569   352   354 1
  570   352   358 1
  571   353   355 1
  572   353   357 1
  573   353   358 1
  574   353   359 1
  575   354   371 1
  576   354   391 1
  577   355   391 1
  578   356   360 1
  579   359   382 1
  580   361   364 1
  581   361   365 1
  582   361   366 1
  583   361   384 1
  584   361   395 1
  585   361   396 1
  586   362   364 1
  587   362   368 1
  588   363   365 1
  589   363   368 1
  590   363   369 1
  591   363   407 1
  592   365   431 1
  593   366   370 1
  594   366   391 1
  595   367   372 1
  596   369   372 1
  597   371   374 1
  598   371   375 1
  599   371   385 1
  600   372   374 1
  601   372   378 1
  602   373   375 1
  603   373   377 1
  604   373   378 1
  605   373   379 1
  606   374   391 1
  607   375   381 1
  608   376   380 1
  609   376   381 1
  610   376   411 1
  611   377   602 1
  612   379   562 1
  613   381   385 1
  614   381   386 1
  615   381   604 1
  616   381   624 1
  617   382   384 1
  618   382   397 1
  619   383   385 1
  620   383   388 1
  621   383   389 1
  622   386   390 1
  623   386   411 1
  624   387   392 1
  625   387   423 1
  626   388   622 1
  627   389   392 1
  628   391   396 1
  629   392   394 1
  630   392   398 1
  631   393   395 1
  632   393   397 1
  633   393   398 1
  634   393   399 1
  635   394   411 1
  636   394   431 1
  637   395   431 1
  638   396   400 1
  639   399   422 1
  640   401   404 1
  641   401   405 1
  642   401   406 1
  643   401   424 1
  644   401   435 1
  645   401   436 1
  646   402   404 1
  647   402   408 1
  648   403   405 1
  649   403   408 1
  650   403   409 1
  651   403   447 1
  652   405   471 1
  653   406   410 1
  654   406   431 1
  655   407   412 1
  656   409   412 1
  657   411   414 1
  658   411   415 1
  659   411   425 1
  660   412   414 1
  661   412   418 1
  662   413   415 1
  663   413   417 1
  664   413   418 1
  665   413   419 1
  666   414   431 1
  667   415   421 1
  668   416   420 1
  669   416   421 1
  670   416   451 1
  671   417   642 1
  672   419   602 1
  673   421   425 1
  674   421   426 1
  675   421   644 1
  676   421   664 1
  677   422   424 1
  678   422   437 1
  679   423   425 1
  680   423   428 1
  681   423   429 1
  682   426   430 1
  683   426   451 1
  684   427   432 1
  685   427   463 1
  686   428   662 1
  687   429   432 1
  688   431   436 1
  689   432   434 1
  690   432   438 1
  691   433   435 1
  692   433   437 1
  693   433   438 1
  694   433   439 1
  695   434   451 1
  696   434   471 1
  697   435   471 1
  698   436   440 1
  699   439   462 1
  700   441   444 1
  701   441   445 1
  702   441   446 1
  703   441   464 1
  704   441   475 1
  705   441   476 1
  706   442   444 1
  707   442   448 1
  708   443   445 1
  709   443   448 1
  710   443   449 1
  711   446   450 1
  712   446   471 1
  713   447   452 1
  714   449   452 1
  715   451   454 1
  716   451   455 1
  717   451   465 1
  718   452   454 1
  719   452   458 1
  720   453   455 1
  721   453   457 1
  722   453   458 1
  723   453   459 1
  724   454   471 1
  725   455   461 1
  726   456   460 1
  727   456   461 1
  728   457   682 1
  729   459   642 1
  730   461   465 1
  731   461   466 1
  732   461   684 1
  733   461   704 1
  734   462   464 1
  735   462   477 1
  736   463   465 1
  737   463   468 1
  738   463   469 1
  739   466   470 1
  740   467   472 1
  741   468   702 1
  742   469   472 1
  743   471   476 1
  744   472   474 1
  745   472   478 1
  746   473   475 1
  747   473   477 1
  748   473   478 1
  749   473   479 1
  750   476   480 1
  751   481   484 1
  752   481   485 1
  753   481   486 1
  754   481   504 1
  755   481   515 1
  756   481   516 1
  757   482   484 1
  758   482   488 1
  759   483   485 1
  760   483   488 1
  761   483   489 1
  762   483   527 1
  763   485   551 1
  764   486   490 1
  765   486   511 1
  766   487   492 1
  767   487   683 1
  768   489   492 1
  769   491   494 1
  770   491   495 1
  771   491   505 1
  772   491   696 1
  773   491   706 1
  774   491   714 1
  775   492   494 1
  776   492   498 1
  777   493   495 1
  778   493   497 1
  779   493   498 1
  780   493   499 1
  781   494   511 1
  782   495   501 1
  783   496   500 1
  784   496   501 1
  785   496   531 1
  786   497   722 1
  787   499   922 1
  788   501   505 1
  789   501   506 1
  790   501   724 1
  791   501   744 1
  792   502   504 1
  793   502   517 1
  794   502   719 1
  795   503   505 1
  796   503   508 1
  797   503   509 1
  798   503   707 1
  799   506   510 1
  800   506   531 1
  801   507   512 1
  802   507   543 1
  803   508   742 1
  804   509   512 1
  805   511   516 1
  806   511   685 1
  807   511   714 1
  808   511   715 1
  809   512   514 1
  810   512   518 1
  811   513   515 1
  812   513   517 1
  813   513   518 1
  814   513   519 1
  815   514   531 1
  816   514   551 1
  817   515   551 1
  818   516   520 1
  819   519   542 1
  820   521   524 1
  821   521   525 1
  822   521   526 1
  823   521   544 1
  824   521   555 1
  825   521   556 1
  826   522   524 1
  827   522   528 1
  828   523   525 1
  829   523   528 1
  830   523   529 1
  831   523   567 1
  832   525   591 1
  833   526   530 1
  834   526   551 1
  835   527   532 1
  836   529   532 1
  837   531   534 1
  838   531   535 1
  839   531   545 1
  840   532   534 1
  841   532   538 1
  842   533   535 1
  843   533   537 1
  844   533   538 1
  845   533   539 1
  846   534   551 1
  847   535   541 1
  848   536   540 1
  849   536   541 1
  850   536   571 1
  851   537   762 1
  852   539   722 1
  853   541   545 1
  854   541   546 1
  855   541   764 1
  856   541   784 1
  857   542   544 1
  858   542   557 1
  859   543   545 1
  860   543   548 1
  861   543   549 1
  862   546   550 1
  863   546   571 1
  864   547   552 1
  865   547   583 1
  866   548   782 1
  867   549   552 1
  868   551   556 1
  869   552   554 1
  870   552   558 1
  871   553   555 1
  872   553   557 1
  873   553   558 1
  874   553   559 1
  875   554   571 1
  876   554   591 1
  877   555   591 1
  878   556   560 1
  879   559   582 1
  880   561   564 1
  881   561   565 1
  882   561   566 1
  883   561   584 1
  884   561   595 1
  885   561   596 1
  886   562   564 1
  887   562   568 1
  888   563   565 1
  889   563   568 1
  890   563   569 1
  891   563   607 1
  892   565   631 1
  893   566   570 1
  894   566   591 1
  895   567   572 1
  896   569   572 1
  897   571   574 1
  898   571   575 1
  899   571   585 1
  900   572   574 1
  901   572   578 1
  902   573   575 1
  903   573   577 1
  904   573   578 1
  905   573   579 1
  906   574   591 1
  907   575   581 1
  908   576   580 1
  909   576   581 1
  910   576   611 1
  911   577   802 1
  912   579   762 1
  913   581   585 1
  914   581   586 1
  915   581   804 1
  916   581   824 1
  917   582   584 1
  918   582   597 1
  919   583   585 1
  920   583   588 1
  921   583   589 1
  922   586   590 1
  923   586   611 1
  924   587   592 1
  925   587   623 1
  926   588   822 1
  927   589   592 1
  928   591   596 1
  929   592   594 1
  930   592   598 1
  931   593   595 1
  932   593   597 1
  933   593   598 1
  934   593   599 1
  935   594   611 1
  936   594   631 1
  937   595   631 1
  938   596   600 1
  939   599   622 1
  940   601   604 1
  941   601   605 1
  942   601   606 1
  943   601   624 1
  944   601   635 1
  945   601   636 1
  946   602   604 1
  947   602   608 1
  948   603   605 1
  949   603   608 1
  950   603   609 1
  951   603   647 1
  952   605   671 1
  953   606   610 1
  954   606   631 1
  955   607   612 1
  956   609   612 1
  957   611   614 1
  958   611   615 1
  959   611   625 1
  960   612   614 1
  961   612   618 1
  962   613   615 1
  963   613   617 1
  964   613   618 1
  965   613   619 1
  966   614   631 1
  967   615   621 1
  968   616   620 1
  969   616   621 1
  970   616   651 1
  971   617   842 1
  972   619   802 1
  973   621   625 1
  974   621   626 1
  975   621   844 1
  976   621   864 1
  977   622   624 1
  978   622   637 1
  979   623   625 1
  980   623   628 1
  981   623   629 1
  982   626   630 1
  983   626   651 1
  984   627   632 1
  985   627   663 1
  986   628   862 1
  987   629   632 1
  988   631   636 1
  989   632   634 1
  990   632   638 1
  991   633   635 1
  992   633   637 1
  993   633   638 1
  994   633   639 1
  995   634   651 1
  996   634   671 1
  997   635   671 1
  998   636   640 1
  999   639   662 1
 1000   641   644 1
 1001   641   645 1
 1002   641   646 1
 1003   641   664 1
 1004   641   675 1
 1005   641   676 1
 1006   642   644 1
 1007   642   648 1
 1008   643   645 1
 1009   643   648 1
 1010   643   649 1
 1011   643   687 1
 1012   645   711 1
 1013   646   650 1
 1014   646   671 1
 1015   647   652 1
 1016   649   652 1
 1017   651   654 1
 1018   651   655 1
 1019   651   665 1
 1020   652   654 1
 1021   652   658 1
 1022   653   655 1
 1023   653   657 1
 1024   653   658 1
 1025   653   659 1
 1026   654   671 1
 1027   655   661 1
 1028   656   660 1
 1029   656   661 1
 1030   656   691 1
 1031   657   882 1
 1032   659   842 1
 1033   661   665 1
 1034   661   666 1
 1035   661   884 1
 1036   661   904 1
 1037   662   664 1
 1038   662   677 1
 1039   663   665 1
 1040   663   668 1
 1041   663   669 1
 1042   666   670 1
 1043   666   691 1
 1044   667   672 1
 1045   667   703 1
 1046   668   902 1
 1047   669   672 1
 1048   671   676 1
 1049   672   674 1
 1050   672   678 1
 1051   673   675 1
 1052   673   677 1
 1053   673   678 1
 1054   673   679 1
 1055   674   691 1
 1056   674   711 1
 1057   675   711 1
 1058   676   680 1
 1059   679   702 1
 1060   681   684 1
 1061   681   685 1
 1062   681   686 1
 1063   681   704 1
 1064   681   715 1
 1065   681   716 1
 1066   682   684 1
 1067   682   688 1
 1068   683   685 1
 1069   683   688 1
 1070   683   689 1
 1071   686   690 1
 1072   686   711 1
 1073   687   692 1
 1074   689   692 1
 1075   691   694 1
 1076   691   695 1
 1077   691   705 1
 1078   692   694 1
 1079   692   698 1
 1080   693   695 1
 1081   693   697 1
 1082   693   698 1
 1083   693   699 1
 1084   694   711 1
 1085   695   701 1
 1086   696   700 1
 1087   696   701 1
 1088   697   922 1
 1089   699   882 1
 1090   701   705 1
 1091   701   706 1
 1092   701   924 1
 1093   701   944 1
 1094   702   704 1
 1095   702   717 1
 1096   703   705 1
 1097   703   708 1
 1098   703   709 1
 1099   706   710 1
 1100   707   712 1
 1101   708   942 1
 1102   709   712 1
 1103   711   716 1
 1104   712   714 1
 1105   712   718 1
 1106   713   715 1
 1107   713   717 1
 1108   713   718 1
 1109   713   719 1
 1110   716   720 1
 1111   721   724 1
 1112   721   725 1
 1113   721   726 1
 1114   721   744 1
 1115   721   755 1
 1116   721   756 1
 1117   722   724 1
 1118   722   728 1
 1119   723   725 1
 1120   723   728 1
 1121   723   729 1
 1122   723   767 1
 1123   725   791 1
 1124   726   730 1
 1125   726   751 1
 1126   727   732 1
 1127   727   923 1
 1128   729   732 1
 1129   731   734 1
 1130   731   735 1
 1131   731   745 1
 1132   731   936 1
 1133   731   946 1
 1134   731   954 1
 1135   732   734 1
 1136   732   738 1
 1137   733   735 1
 1138   733   737 1
 1139   733   738 1
 1140   733   739 1
 1141   734   751 1
 1142   735   741 1
 1143   736   740 1
 1144   736   741 1
 1145   736   771 1
 1146   741   745 1
 1147   741   746 1
 1148   742   744 1
 1149   742   757 1
 1150   742   959 1
 1151   743   745 1
 1152   743   748 1
 1153   743   749 1
 1154   743   947 1
 1155   746   750 1
 1156   746   771 1
 1157   747   752 1
 1158   747   783 1
 1159   749   752 1
 1160   751   756 1
 1161   751   925 1
 1162   751   954 1
 1163   751   955 1
 1164   752   754 1
 1165   752   758 1
 1166   753   755 1
 1167   753   757 1
 1168   753   758 1
 1169   753   759 1
 1170   754   771 1
 1171   754   791 1
 1172   755   791 1
 1173   756   760 1
 1174   759   782 1
 1175   761   764 1
 1176   761   765 1
 1177   761   766 1
 1178   761   784 1
 1179   761   795 1
 1180   761   796 1
 1181   762   764 1
 1182   762   768 1
 1183   763   765 1
 1184   763   768 1
 1185   763   769 1
 1186   763   807 1
 1187   765   831 1
 1188   766   770 1
 1189   766   791 1
 1190   767   772 1
 1191   769   772 1
 1192   771   774 1
 1193   771   775 1
 1194   771   785 1
 1195   772   774 1
 1196   772   778 1
 1197   773   775 1
 1198   773   777 1
 1199   773   778 1
 1200   773   779 1
 1201   774   791 1
 1202   775   781 1
 1203   776   780 1
 1204   776   781 1
 1205   776   811 1
 1206   781   785 1
 1207   781   786 1
 1208   782   784 1
 1209   782   797 1
 1210   783   785 1
 1211   783   788 1
 1212   783   789 1
 1213   786   790 1
 1214   786   811 1
 1215   787   792 1
 1216   787   823 1
 1217   789   792 1
 1218   791   796 1
 1219   792   794 1
 1220   792   798 1
 1221   793   795 1
 1222   793   797 1
 1223   793   798 1
 1224   793   799 1
 1225   794   811 1
 1226   794   831 1
 1227   795   831 1
 1228   796   800 1
 1229   799   822 1
 1230   801   804 1
 1231   801   805 1
 1232   801   806 1
 1233   801   824 1
 1234   801   835 1
 1235   801   836 1
 1236   802   804 1
 1237   802   808 1
 1238   803   805 1
 1239   803   808 1
 1240   803   809 1
 1241   803   847 1
 1242   805   871 1
 1243   806   810 1
 1244   806   831 1
 1245   807   812 1
 1246   809   812 1
 1247   811   814 1
 1248   811   815 1
 1249   811   825 1
 1250   812   814 1
 1251   812   818 1
 1252   813   815 1
 1253   813   817 1
 1254   813   818 1
 1255   813   819 1
 1256   814   831 1
 1257   815   821 1
 1258   816   820 1
 1259   816   821 1
 1260   816   851 1
 1261   821   825 1
 1262   821   826 1
 1263   822   824 1
 1264   822   837 1
 1265   823   825 1
 1266   823   828 1
 1267   823   829 1
 1268   826   830 1
 1269   826   851 1
 1270   827   832 1
 1271   827   863 1
 1272   829   832 1
 1273   831   836 1
 1274   832   834 1
 1275   832   838 1
 1276   833   835 1
 1277   833   837 1
 1278   833   838 1
 1279   833   839 1
 1280   834   851 1
 1281   834   871 1
 1282   835   871 1
 1283   836   840 1
 1284   839   862 1
 1285   841   844 1
 1286   841   845 1
 1287   841   846 1
 1288   841   864 1
 1289   841   875 1
 1290   841   876 1
 1291   842   844 1
 1292   842   848 1
 1293   843   845 1
 1294   843   848 1
 1295   843   849 1
 1296   843   887 1
 1297   845   911 1
 1298   846   850 1
 1299   846   871 1
 1300   847   852 1
 1301   849   852 1
 1302   851   854 1
 1303   851   855 1
 1304   851   865 1
 1305   852   854 1
 1306   852   858 1
 1307   853   855 1
 1308   853   857 1
 1309   853   858 1
 1310   853   859 1
 1311   854   871 1
 1312   855   861 1
 1313   856   860 1
 1314   856   861 1
 1315   856   891 1
 1316   861   865 1
 1317   861   866 1
 1318   862   864 1
 1319   862   877 1
 1320   863   865 1
 1321   863   868 1
 1322   863   869 1
 1323   866   870 1
 1324   866   891 1
 1325   867   872 1
 1326   867   903 1
 1327   869   872 1
 1328   871   876 1
 1329   872   874 1
 1330   872   878 1
 1331   873   875 1
 1332   873   877 1
 1333   873   878 1
 1334   873   879 1
 1335   874   891 1
 1336   874   911 1
 1337   875   911 1
 1338   876   880 1
 1339   879   902 1
 1340   881   884 1
 1341   881   885 1
 1342   881   886 1
 1343   881   904 1
 1344   881   915 1
 1345   881   916 1
 1346   882   884 1
 1347   882   888 1
 1348   883   885 1
 1349   883   888 1
 1350   883   889 1
 1351   883   927 1
 1352   885   951 1
 1353   886   890 1
 1354   886   911 1
 1355   887   892 1
 1356   889   892 1
 1357   891   894 1
 1358   891   895 1
 1359   891   905 1
 1360   892   894 1
 1361   892   898 1
 1362   893   895 1
 1363   893   897 1
 1364   893   898 1
 1365   893   899 1
 1366   894   911 1
 1367   895   901 1
 1368   896   900 1
 1369   896   901 1
 1370   896   931 1
 1371   901   905 1
 1372   901   906 1
 1373   902   904 1
 1374   902   917 1
 1375   903   905 1
 1376   903   908 1
 1377   903   909 1
 1378   906   910 1
 1379   906   931 1
 1380   907   912 1
 1381   907   943 1
 1382   909   912 1
 1383   911   916 1
 1384   912   914 1
 1385   912   918 1
 1386   913   915 1
 1387   913   917 1
 1388   913   918 1
 1389   913   919 1
 1390   914   931 1
 1391   914   951 1
 1392   915   951 1
 1393   916   920 1
 1394   919   942 1
 1395   921   924 1
 1396   921   925 1
 1397   921   926 1
 1398   921   944 1
 1399   921   955 1
 1400   921   956 1
 1401   922   924 1
 1402   922   928 1
 1403   923   925 1
 1404   923   928 1
 1405   923   929 1
 1406   926   930 1
 1407   926   951 1
 1408   927   932 1
 1409   929   932 1
 1410   931   934 1
 1411   931   935 1
 1412   931   945 1
 1413   932   934 1
 1414   932   938 1
 1415   933   935 1
 1416   933   937 1
 1417   933   938 1
 1418   933   939 1
 1419   934   951 1
 1420   935   941 1
 1421   936   940 1
 1422   936   941 1
 1423   941   945 1
 1424   941   946 1
 1425   942   944 1
 1426   942   957 1
 1427   943   945 1
 1428   943   948 1
 1429   943   949 1
 1430   946   950 1
 1431   947   952 1
 1432   949   952 1
 1433   951   956 1
 1434   952   954 1
 1435   952   958 1
 1436   953   955 1
 1437   953   957 1
 1438   953   958 1
 1439   953   959 1
 1440   956   960 1
 1441   961   964 1
 1442   961   965 1
 1443   961   966 1
 1444   961   984 1
 1445   961   995 1
 1446   961   996 1
 1447   962   964 1
 1448   962   968 1
 1449   962  1697 1
 1450   962  1739 1
 1451   963   965 1
 1452   963   968 1
 1453   963   969 1
 1454   963  1007 1
 1455   964  1701 1
 1456   965  1031 1
 1457   966   970 1
 1458   966   991 1
 1459   967   972 1
 1460   967  1163 1
 1461   969   972 1
 1462   971   974 1
 1463   971   975 1
 1464   971   985 1
 1465   971  1176 1
 1466   971  1186 1
 1467   971  1194 1
 1468   972   974 1
 1469   972   978 1
 1470   973   975 1
 1471   973   977 1
 1472   973   978 1
 1473   973   979 1
 1474   974   991 1
 1475   975   981 1
 1476   976   980 1
 1477   976   981 1
 1478   976  1011 1
 1479   977  1202 1
 1480   979  1402 1
 1481   981   985 1
 1482   981   986 1
 1483   981  1204 1
 1484   981  1224 1
 1485   982   984 1
 1486   982   997 1
 1487   982  1199 1
 1488   982  1708 1
 1489   983   985 1
 1490   983   988 1
 1491   983   989 1
 1492   983  1187 1
 1493   984  1701 1
 1494   986   990 1
 1495   986  1011 1
 1496   987   992 1
 1497   987  1023 1
 1498   988  1222 1
 1499   989   992 1
 1500   991   996 1
 1501   991  1165 1
 1502   991  1194 1
 1503   991  1195 1
 1504   992   994 1
 1505   992   998 1
 1506   993   995 1
 1507   993   997 1
 1508   993   998 1
 1509   993   999 1
 1510   994  1011 1
 1511   994  1031 1
 1512   995  1031 1
 1513   996  1000 1
 1514   999  1022 1
 1515  1001  1004 1
 1516  1001  1005 1
 1517  1001  1006 1
 1518  1001  1024 1
 1519  1001  1035 1
 1520  1001  1036 1
 1521  1002  1004 1
 1522  1002  1008 1
 1523  1002  1737 1
 1524  1002  1779 1
 1525  1003  1005 1
 1526  1003  1008 1
 1527  1003  1009 1
 1528  1003  1047 1
 1529  1004  1741 1
 1530  1005  1071 1
 1531  1006  1010 1
 1532  1006  1031 1
 1533  1007  1012 1
 1534  1009  1012 1
 1535  1011  1014 1
 1536  1011  1015 1
 1537  1011  1025 1
 1538  1012  1014 1
 1539  1012  1018 1
 1540  1013  1015 1
 1541  1013  1017 1
 1542  1013  1018 1
 1543  1013  1019 1
 1544  1014  1031 1
 1545  1015  1021 1
 1546  1016  1020 1
 1547  1016  1021 1
 1548  1016  1051 1
 1549  1017  1242 1
 1550  1019  1202 1
 1551  1021  1025 1
 1552  1021  1026 1
 1553  1021  1244 1
 1554  1021  1264 1
 1555  1022  1024 1
 1556  1022  1037 1
 1557  1022  1748 1
 1558  1023  1025 1
 1559  1023  1028 1
 1560  1023  1029 1
 1561  1024  1741 1
 1562  1026  1030 1
 1563  1026  1051 1
 1564  1027  1032 1
 1565  1027  1063 1
 1566  1028  1262 1
 1567  1029  1032 1
 1568  1031  1036 1
 1569  1032  1034 1
 1570  1032  1038 1
 1571  1033  1035 1
 1572  1033  1037 1
 1573  1033  1038 1
 1574  1033  1039 1
 1575  1034  1051 1
 1576  1034  1071 1
 1577  1035  1071 1
 1578  1036  1040 1
 1579  1039  1062 1
 1580  1041  1044 1
 1581  1041  1045 1
 1582  1041  1046 1
 1583  1041  1064 1
 1584  1041  1075 1
 1585  1041  1076 1
 1586  1042  1044 1
 1587  1042  1048 1
 1588  1042  1777 1
 1589  1042  1819 1
 1590  1043  1045 1
 1591  1043  1048 1
 1592  1043  1049 1
 1593  1043  1087 1
 1594  1044  1781 1
 1595  1045  1111 1
 1596  1046  1050 1
 1597  1046  1071 1
 1598  1047  1052 1
 1599  1049  1052 1
 1600  1051  1054 1
 1601  1051  1055 1
 1602  1051  1065 1
 1603  1052  1054 1
 1604  1052  1058 1
 1605  1053  1055 1
 1606  1053  1057 1
 1607  1053  1058 1
 1608  1053  1059 1
 1609  1054  1071 1
 1610  1055  1061 1
 1611  1056  1060 1
 1612  1056  1061 1
 1613  1056  1091 1
 1614  1057  1282 1
 1615  1059  1242 1
 1616  1061  1065 1
 1617  1061  1066 1
 1618  1061  1284 1
 1619  1061  1304 1
 1620  1062  1064 1
 1621  1062  1077 1
 1622  1062  1788 1
 1623  1063  1065 1
 1624  1063  1068 1
 1625  1063  1069 1
 1626  1064  1781 1
 1627  1066  1070 1
 1628  1066  1091 1
 1629  1067  1072 1
 1630  1067  1103 1
 1631  1068  1302 1
 1632  1069  1072 1
 1633  1071  1076 1
 1634  1072  1074 1
 1635  1072  1078 1
 1636  1073  1075 1
 1637  1073  1077 1
 1638  1073  1078 1
 1639  1073  1079 1
 1640  1074  1091 1
 1641  1074  1111 1
 1642  1075  1111 1
 1643  1076  1080 1
 1644  1079  1102 1
 1645  1081  1084 1
 1646  1081  1085 1
 1647  1081  1086 1
 1648  1081  1104 1
 1649  1081  1115 1
 1650  1081  1116 1
 1651  1082  1084 1
 1652  1082  1088 1
 1653  1082  1817 1
 1654  1082  1859 1
 1655  1083  1085 1
 1656  1083  1088 1
 1657  1083  1089 1
 1658  1083  1127 1
 1659  1084  1821 1
 1660  1085  1151 1
 1661  1086  1090 1
 1662  1086  1111 1
 1663  1087  1092 1
 1664  1089  1092 1
 1665  1091  1094 1
 1666  1091  1095 1
 1667  1091  1105 1
 1668  1092  1094 1
 1669  1092  1098 1
 1670  1093  1095 1
 1671  1093  1097 1
 1672  1093  1098 1
 1673  1093  1099 1
 1674  1094  1111 1
 1675  1095  1101 1
 1676  1096  1100 1
 1677  1096  1101 1
 1678  1096  1131 1
 1679  1097  1322 1
 1680  1099  1282 1
 1681  1101  1105 1
 1682  1101  1106 1
 1683  1101  1324 1
 1684  1101  1344 1
 1685  1102  1104 1
 1686  1102  1117 1
 1687  1102  1828 1
 1688  1103  1105 1
 1689  1103  1108 1
 1690  1103  1109 1
 1691  1104  1821 1
 1692  1106  1110 1
 1693  1106  1131 1
 1694  1107  1112 1
 1695  1107  1143 1
 1696  1108  1342 1
 1697  1109  1112 1
 1698  1111  1116 1
 1699  1112  1114 1
 1700  1112  1118 1
 1701  1113  1115 1
 1702  1113  1117 1
 1703  1113  1118 1
 1704  1113  1119 1
 1705  1114  1131 1
 1706  1114  1151 1
 1707  1115  1151 1
 1708  1116  1120 1
 1709  1119  1142 1
 1710  1121  1124 1
 1711  1121  1125 1
 1712  1121  1126 1
 1713  1121  1144 1
 1714  1121  1155 1
 1715  1121  1156 1
 1716  1122  1124 1
 1717  1122  1128 1
 1718  1122  1857 1
 1719  1122  1899 1
 1720  1123  1125 1
 1721  1123  1128 1
 1722  1123  1129 1
 1723  1123  1167 1
 1724  1124  1861 1
 1725  1125  1191 1
 1726  1126  1130 1
 1727  1126  1151 1
 1728  1127  1132 1
 1729  1129  1132 1
 1730  1131  1134 1
 1731  1131  1135 1
 1732  1131  1145 1
 1733  1132  1134 1
 1734  1132  1138 1
 1735  1133  1135 1
 1736  1133  1137 1
 1737  1133  1138 1
 1738  1133  1139 1
 1739  1134  1151 1
 1740  1135  1141 1
 1741  1136  1140 1
 1742  1136  1141 1
 1743  1136  1171 1
 1744  1137  1362 1
 1745  1139  1322 1
 1746  1141  1145 1
 1747  1141  1146 1
 1748  1141  1364 1
 1749  1141  1384 1
 1750  1142  1144 1
 1751  1142  1157 1
 1752  1142  1868 1
 1753  1143  1145 1
 1754  1143  1148 1
 1755  1143  1149 1
 1756  1144  1861 1
 1757  1146  1150 1
 1758  1146  1171 1
 1759  1147  1152 1
 1760  1147  1183 1
 1761  1148  1382 1
 1762  1149  1152 1
 1763  1151  1156 1
 1764  1152  1154 1
 1765  1152  1158 1
 1766  1153  1155 1
 1767  1153  1157 1
 1768  1153  1158 1
 1769  1153  1159 1
 1770  1154  1171 1
 1771  1154  1191 1
 1772  1155  1191 1
 1773  1156  1160 1
 1774  1159  1182 1
 1775  1161  1164 1
 1776  1161  1165 1
 1777  1161  1166 1
 1778  1161  1184 1
 1779  1161  1195 1
 1780  1161  1196 1
 1781  1162  1164 1
 1782  1162  1168 1
 1783  1162  1699 1
 1784  1162  1897 1
 1785  1163  1165 1
 1786  1163  1168 1
 1787  1163  1169 1
 1788  1164  1901 1
 1789  1166  1170 1
 1790  1166  1191 1
 1791  1167  1172 1
 1792  1169  1172 1
 1793  1171  1174 1
 1794  1171  1175 1
 1795  1171  1185 1
 1796  1172  1174 1
 1797  1172  1178 1
 1798  1173  1175 1
 1799  1173  1177 1
 1800  1173  1178 1
 1801  1173  1179 1
 1802  1174  1191 1
 1803  1175  1181 1
 1804  1176  1180 1
 1805  1176  1181 1
 1806  1177  1402 1
 1807  1179  1362 1
 1808  1181  1185 1
 1809  1181  1186 1
 1810  1181  1404 1
 1811  1181  1424 1
 1812  1182  1184 1
 1813  1182  1197 1
 1814  1182  1908 1
 1815  1183  1185 1
 1816  1183  1188 1
 1817  1183  1189 1
 1818  1184  1901 1
 1819  1186  1190 1
 1820  1187  1192 1
 1821  1188  1422 1
 1822  1189  1192 1
 1823  1191  1196 1
 1824  1192  1194 1
 1825  1192  1198 1
 1826  1193  1195 1
 1827  1193  1197 1
 1828  1193  1198 1
 1829  1193  1199 1
 1830  1196  1200 1
 1831  1201  1204 1
 1832  1201  1205 1
 1833  1201  1206 1
 1834  1201  1224 1
 1835  1201  1235 1
 1836  1201  1236 1
 1837  1202  1204 1
 1838  1202  1208 1
 1839  1203  1205 1
 1840  1203  1208 1
 1841  1203  1209 1
 1842  1203  1247 1
 1843  1205  1271 1
 1844  1206  1210 1
 1845  1206  1231 1
 1846  1207  1212 1
 1847  1207  1403 1
 1848  1209  1212 1
 1849  1211  1214 1
 1850  1211  1215 1
 1851  1211  1225 1
 1852  1211  1416 1
 1853  1211  1426 1
 1854  1211  1434 1
 1855  1212  1214 1
 1856  1212  1218 1
 1857  1213  1215 1
 1858  1213  1217 1
 1859  1213  1218 1
 1860  1213  1219 1
 1861  1214  1231 1
 1862  1215  1221 1
 1863  1216  1220 1
 1864  1216  1221 1
 1865  1216  1251 1
 1866  1217  1442 1
 1867  1219  1642 1
 1868  1221  1225 1
 1869  1221  1226 1
 1870  1221  1444 1
 1871  1221  1464 1
 1872  1222  1224 1
 1873  1222  1237 1
 1874  1222  1439 1
 1875  1223  1225 1
 1876  1223  1228 1
 1877  1223  1229 1
 1878  1223  1427 1
 1879  1226  1230 1
 1880  1226  1251 1
 1881  1227  1232 1
 1882  1227  1263 1
 1883  1228  1462 1
 1884  1229  1232 1
 1885  1231  1236 1
 1886  1231  1405 1
 1887  1231  1434 1
 1888  1231  1435 1
 1889  1232  1234 1
 1890  1232  1238 1
 1891  1233  1235 1
 1892  1233  1237 1
 1893  1233  1238 1
 1894  1233  1239 1
 1895  1234  1251 1
 1896  1234  1271 1
 1897  1235  1271 1
 1898  1236  1240 1
 1899  1239  1262 1
 1900  1241  1244 1
 1901  1241  1245 1
 1902  1241  1246 1
 1903  1241  1264 1
 1904  1241  1275 1
 1905  1241  1276 1
 1906  1242  1244 1
 1907  1242  1248 1
 1908  1243  1245 1
 1909  1243  1248 1
 1910  1243  1249 1
 1911  1243  1287 1
 1912  1245  1311 1
 1913  1246  1250 1
 1914  1246  1271 1
 1915  1247  1252 1
 1916  1249  1252 1
 1917  1251  1254 1
 1918  1251  1255 1
 1919  1251  1265 1
 1920  1252  1254 1
 1921  1252  1258 1
 1922  1253  1255 1
 1923  1253  1257 1
 1924  1253  1258 1
 1925  1253  1259 1
 1926  1254  1271 1
 1927  1255  1261 1
 1928  1256  1260 1
 1929  1256  1261 1
 1930  1256  1291 1
 1931  1257  1482 1
 1932  1259  1442 1
 1933  1261  1265 1
 1934  1261  1266 1
 1935  1261  1484 1
 1936  1261  1504 1
 1937  1262  1264 1
 1938  1262  1277 1
 1939  1263  1265 1
 1940  1263  1268 1
 1941  1263  1269 1
 1942  1266  1270 1
 1943  1266  1291 1
 1944  1267  1272 1
 1945  1267  1303 1
 1946  1268  1502 1
 1947  1269  1272 1
 1948  1271  1276 1
 1949  1272  1274 1
 1950  1272  1278 1
 1951  1273  1275 1
 1952  1273  1277 1
 1953  1273  1278 1
 1954  1273  1279 1
 1955  1274  1291 1
 1956  1274  1311 1
 1957  1275  1311 1
 1958  1276  1280 1
 1959  1279  1302 1
 1960  1281  1284 1
 1961  1281  1285 1
 1962  1281  1286 1
 1963  1281  1304 1
 1964  1281  1315 1
 1965  1281  1316 1
 1966  1282  1284 1
 1967  1282  1288 1
 1968  1283  1285 1
 1969  1283  1288 1
 1970  1283  1289 1
 1971  1283  1327 1
 1972  1285  1351 1
 1973  1286  1290 1
 1974  1286  1311 1
 1975  1287  1292 1
 1976  1289  1292 1
 1977  1291  1294 1
 1978  1291  1295 1
 1979  1291  1305 1
 1980  1292  1294 1
 1981  1292  1298 1
 1982  1293  1295 1
 1983  1293  1297 1
 1984  1293  1298 1
 1985  1293  1299 1
 1986  1294  1311 1
 1987  1295  1301 1
 1988  1296  1300 1
 1989  1296  1301 1
 1990  1296  1331 1
 1991  1297  1522 1
 1992  1299  1482 1
 1993  1301  1305 1
 1994  1301  1306 1
 1995  1301  1524 1
 1996  1301  1544 1
 1997  1302  1304 1
 1998  1302  1317 1
 1999  1303  1305 1
 2000  1303  1308 1
 2001  1303  1309 1
 2002  1306  1310 1
 2003  1306  1331 1
 2004  1307  1312 1
 2005  1307  1343 1
 2006  1308  1542 1
 2007  1309  1312 1
 2008  1311  1316 1
 2009  1312  1314 1
 2010  1312  1318 1
 2011  1313  1315 1
 2012  1313  1317 1
 2013  1313  1318 1
 2014  1313  1319 1
 2015  1314  1331 1
 2016  1314  1351 1
 2017  1315  1351 1
 2018  1316  1320 1
 2019  1319  1342 1
 2020  1321  1324 1
 2021  1321  1325 1
 2022  1321  1326 1
 2023  1321  1344 1
 2024  1321  1355 1
 2025  1321  1356 1
 2026  1322  1324 1
 2027  1322  1328 1
 2028  1323  1325 1
 2029  1323  1328 1
 2030  1323  1329 1
 2031  1323  1367 1
 2032  1325  1391 1
 2033  1326  1330 1
 2034  1326  1351 1
 2035  1327  1332 1
 2036  1329  1332 1
 2037  1331  1334 1
 2038  1331  1335 1
 2039  1331  1345 1
 2040  1332  1334 1
 2041  1332  1338 1
 2042  1333  1335 1
 2043  1333  1337 1
 2044  1333  1338 1
 2045  1333  1339 1
 2046  1334  1351 1
 2047  1335  1341 1
 2048  1336  1340 1
 2049  1336  1341 1
 2050  1336  1371 1
 2051  1337  1562 1
 2052  1339  1522 1
 2053  1341  1345 1
 2054  1341  1346 1
 2055  1341  1564 1
 2056  1341  1584 1
 2057  1342  1344 1
 2058  1342  1357 1
 2059  1343  1345 1
 2060  1343  1348 1
 2061  1343  1349 1
 2062  1346  1350 1
 2063  1346  1371 1
 2064  1347  1352 1
 2065  1347  1383 1
 2066  1348  1582 1
 2067  1349  1352 1
 2068  1351  1356 1
 2069  1352  1354 1
 2070  1352  1358 1
 2071  1353  1355 1
 2072  1353  1357 1
 2073  1353  1358 1
 2074  1353  1359 1
 2075  1354  1371 1
 2076  1354  1391 1
 2077  1355  1391 1
 2078  1356  1360 1
 2079  1359  1382 1
 2080  1361  1364 1
 2081  1361  1365 1
 2082  1361  1366 1
 2083  1361  1384 1
 2084  1361  1395 1
 2085  1361  1396 1
 2086  1362  1364 1
 2087  1362  1368 1
 2088  1363  1365 1
 2089  1363  1368 1
 2090  1363  1369 1
 2091  1363  1407 1
 2092  1365  1431 1
 2093  1366  1370 1
 2094  1366  1391 1
 2095  1367  1372 1
 2096  1369  1372 1
 2097  1371  1374 1
 2098  1371  1375 1
 2099  1371  1385 1
 2100  1372  1374 1
 2101  1372  1378 1
 2102  1373  1375 1
 2103  1373  1377 1
 2104  1373  1378 1
 2105  1373  1379 1
 2106  1374  1391 1
 2107  1375  1381 1
 2108  1376  1380 1
 2109  1376  1381 1
 2110  1376  1411 1
 2111  1377  1602 1
 2112  1379  1562 1
 2113  1381  1385 1
 2114  1381  1386 1
 2115  1381  1604 1
 2116  1381  1624 1
 2117  1382  1384 1
 2118  1382  1397 1
 2119  1383  1385 1
 2120  1383  1388 1
 2121  1383  1389 1
 2122  1386  1390 1
 2123  1386  1411 1
 2124  1387  1392 1
 2125  1387  1423 1
 2126  1388  1622 1
 2127  1389  1392 1
 2128  1391  1396 1
 2129  1392  1394 1
 2130  1392  1398 1
 2131  1393  1395 1
 2132  1393  1397 1
 2133  1393  1398 1
 2134  1393  1399 1
 2135  1394  1411 1
 2136  1394  1431 1
 2137  1395  1431 1
 2138  1396  1400 1
 2139  1399  1422 1
 2140  1401  1404 1
 2141  1401  1405 1
 2142  1401  1406 1
 2143  1401  1424 1
 2144  1401  1435 1
 2145  1401  1436 1
 2146  1402  1404 1
 2147  1402  1408 1
 2148  1403  1405 1
 2149  1403  1408 1
 2150  1403  1409 1
 2151  1406  1410 1
 2152  1406  1431 1
 2153  1407  1412 1
 2154  1409  1412 1
 2155  1411  1414 1
 2156  1411  1415 1
 2157  1411  1425 1
 2158  1412  1414 1
 2159  1412  1418 1
 2160  1413  1415 1
 2161  1413  1417 1
 2162  1413  1418 1
 2163  1413  1419 1
 2164  1414  1431 1
 2165  1415  1421 1
 2166  1416  1420 1
 2167  1416  1421 1
 2168  1417  1642 1
 2169  1419  1602 1
 2170  1421  1425 1
 2171  1421  1426 1
 2172  1421  1644 1
 2173  1421  1664 1
 2174  1422  1424 1
 2175  1422  1437 1
 2176  1423  1425 1
 2177  1423  1428 1
 2178  1423  1429 1
 2179  1426  1430 1
 2180  1427  1432 1
 2181  1428  1662 1
 2182  1429  1432 1
 2183  1431  1436 1
 2184  1432  1434 1
 2185  1432  1438 1
 2186  1433  1435 1
 2187  1433  1437 1
 2188  1433  1438 1
 2189  1433  1439 1
 2190  1436  1440 1
 2191  1441  1444 1
 2192  1441  1445 1
 2193  1441  1446 1
 2194  1441  1464 1
 2195  1441  1475 1
 2196  1441  1476 1
 2197  1442  1444 1
 2198  1442  1448 1
 2199  1443  1445 1
 2200  1443  1448 1
 2201  1443  1449 1
 2202  1443  1487 1
 2203  1445  1511 1
 2204  1446  1450 1
 2205  1446  1471 1
 2206  1447  1452 1
 2207  1447  1643 1
 2208  1449  1452 1
 2209  1451  1454 1
 2210  1451  1455 1
 2211  1451  1465 1
 2212  1451  1656 1
 2213  1451  1666 1
 2214  1451  1674 1
 2215  1452  1454 1
 2216  1452  1458 1
 2217  1453  1455 1
 2218  1453  1457 1
 2219  1453  1458 1
 2220  1453  1459 1
 2221  1454  1471 1
 2222  1455  1461 1
 2223  1456  1460 1
 2224  1456  1461 1
 2225  1456  1491 1
 2226  1457  1682 1
 2227  1459  1882 1
 2228  1461  1465 1
 2229  1461  1466 1
 2230  1461  1684 1
 2231  1461  1704 1
 2232  1462  1464 1
 2233  1462  1477 1
 2234  1462  1679 1
 2235  1463  1465 1
 2236  1463  1468 1
 2237  1463  1469 1
 2238  1463  1667 1
 2239  1466  1470 1
 2240  1466  1491 1
 2241  1467  1472 1
 2242  1467  1503 1
 2243  1468  1702 1
 2244  1469  1472 1
 2245  1471  1476 1
 2246  1471  1645 1
 2247  1471  1674 1
 2248  1471  1675 1
 2249  1472  1474 1
 2250  1472  1478 1
 2251  1473  1475 1
 2252  1473  1477 1
 2253  1473  1478 1
 2254  1473  1479 1
 2255  1474  1491 1
 2256  1474  1511 1
 2257  1475  1511 1
 2258  1476  1480 1
 2259  1479  1502 1
 2260  1481  1484 1
 2261  1481  1485 1
 2262  1481  1486 1
 2263  1481  1504 1
 2264  1481  1515 1
 2265  1481  1516 1
 2266  1482  1484 1
 2267  1482  1488 1
 2268  1483  1485 1
 2269  1483  1488 1
 2270  1483  1489 1
 2271  1483  1527 1
 2272  1485  1551 1
 2273  1486  1490 1
 2274  1486  1511 1
 2275  1487  1492 1
 2276  1489  1492 1
 2277  1491  1494 1
 2278  1491  1495 1
 2279  1491  1505 1
 2280  1492  1494 1
 2281  1492  1498 1
 2282  1493  1495 1
 2283  1493  1497 1
 2284  1493  1498 1
 2285  1493  1499 1
 2286  1494  1511 1
 2287  1495  1501 1
 2288  1496  1500 1
 2289  1496  1501 1
 2290  1496  1531 1
 2291  1497  1722 1
 2292  1499  1682 1
 2293  1501  1505 1
 2294  1501  1506 1
 2295  1501  1724 1
 2296  1501  1744 1
 2297  1502  1504 1
 2298  1502  1517 1
 2299  1503  1505 1
 2300  1503  1508 1
 2301  1503  1509 1
 2302  1506  1510 1
 2303  1506  1531 1
 2304  1507  1512 1
 2305  1507  1543 1
 2306  1508  1742 1
 2307  1509  1512 1
 2308  1511  1516 1
 2309  1512  1514 1
 2310  1512  1518 1
 2311  1513  1515 1
 2312  1513  1517 1
 2313  1513  1518 1
 2314  1513  1519 1
 2315  1514  1531 1
 2316  1514  1551 1
 2317  1515  1551 1
 2318  1516  1520 1
 2319  1519  1542 1
 2320  1521  1524 1
 2321  1521  1525 1
 2322  1521  1526 1
 2323  1521  1544 1
 2324  1521  1555 1
 2325  1521  1556 1
 2326  1522  1524 1
 2327  1522  1528 1
 2328  1523  1525 1
 2329  1523  1528 1
 2330  1523  1529 1
 2331  1523  1567 1
 2332  1525  1591 1
 2333  1526  1530 1
 2334  1526  1551 1
 2335  1527  1532 1
 2336  1529  1532 1
 2337  1531  1534 1
 2338  1531  1535 1
 2339  1531  1545 1
 2340  1532  1534 1
 2341  1532  1538 1
 2342  1533  1535 1
 2343  1533  1537 1
 2344  1533  1538 1
 2345  1533  1539 1
 2346  1534  1551 1
 2347  1535  1541 1
 2348  1536  1540 1
 2349  1536  1541 1
 2350  1536  1571 1
 2351  1537  1762 1
 2352  1539  1722 1
 2353  1541  1545 1
 2354  1541  1546 1
 2355  1541  1764 1
 2356  1541  1784 1
 2357  1542  1544 1
 2358  1542  1557 1
 2359  1543  1545 1
 2360  1543  1548 1
 2361  1543  1549 1
 2362  1546  1550 1
 2363  1546  1571 1
 2364  1547  1552 1
 2365  1547  1583 1
 2366  1548  1782 1
 2367  1549  1552 1
 2368  1551  1556 1
 2369  1552  1554 1
 2370  1552  1558 1
 2371  1553  1555 1
 2372  1553  1557 1
 2373  1553  1558 1
 2374  1553  1559 1
 2375  1554  1571 1
 2376  1554  1591 1
 2377  1555  1591 1
 2378  1556  1560 1
 2379  1559  1582 1
 2380  1561  1564 1
 2381  1561  1565 1
 2382  1561  1566 1
 2383  1561  1584 1
 2384  1561  1595 1
 2385  1561  1596 1
 2386  1562  1564 1
 2387  1562  1568 1
 2388  1563  1565 1
 2389  1563  1568 1
 2390  1563  1569 1
 2391  1563  1607 1
 2392  1565  1631 1
 2393  1566  1570 1
 2394  1566  1591 1
 2395  1567  1572 1
 2396  1569  1572 1
 2397  1571  1574 1
 2398  1571  1575 1
 2399  1571  1585 1
 2400  1572  1574 1
 2401  1572  1578 1
 2402  1573  1575 1
 2403  1573  1577 1
 2404  1573  1578 1
 2405  1573  1579 1
 2406  1574  1591 1
 2407  1575  1581 1
 2408  1576  1580 1
 2409  1576  1581 1
 2410  1576  1611 1
 2411  1577  1802 1
 2412  1579  1762 1
 2413  1581  1585 1
 2414  1581  1586 1
 2415  1581  1804 1
 2416  1581  1824 1
 2417  1582  1584 1
 2418  1582  1597 1
 2419  1583  1585 1
 2420  1583  1588 1
 2421  1583  1589 1
 2422  1586  1590 1
 2423  1586  1611 1
 2424  1587  1592 1
 2425  1587  1623 1
 2426  1588  1822 1
 2427  1589  1592 1
 2428  1591  1596 1
 2429  1592  1594 1
 2430  1592  1598 1
 2431  1593  1595 1
 2432  1593  1597 1
 2433  1593  1598 1
 2434  1593  1599 1
 2435  1594  1611 1
 2436  1594  1631 1
 2437  1595  1631 1
 2438  1596  1600 1
 2439  1599  1622 1
 2440  1601  1604 1
 2441  1601  1605 1
 2442  1601  1606 1
 2443  1601  1624 1
 2444  1601  1635 1
 2445  1601  1636 1
 2446  1602  1604 1
 2447  1602  1608 1
 2448  1603  1605 1
 2449  1603  1608 1
 2450  1603  1609 1
 2451  1603  1647 1
 2452  1605  1671 1
 2453  1606  1610 1
 2454  1606  1631 1
 2455  1607  1612 1
 2456  1609  1612 1
 2457  1611  1614 1
 2458  1611  1615 1
 2459  1611  1625 1
 2460  1612  1614 1
 2461  1612  1618 1
 2462  1613  1615 1
 2463  1613  1617 1
 2464  1613  1618 1
 2465  1613  1619 1
 2466  1614  1631 1
 2467  1615  1621 1
 2468  1616  1620 1
 2469  1616  1621 1
 2470  1616  1651 1
 2471  1617  1842 1
 2472  1619  1802 1
 2473  1621  1625 1
 2474  1621  1626 1
 2475  1621  1844 1
 2476  1621  1864 1
 2477  1622  1624 1
 2478  1622  1637 1
 2479  1623  1625 1
 2480  1623  1628 1
 2481  1623  1629 1
 2482  1626  1630 1
 2483  1626  1651 1
 2484  1627  1632 1
 2485  1627  1663 1
 2486  1628  1862 1
 2487  1629  1632 1
 2488  1631  1636 1
 2489  1632  1634 1
 2490  1632  1638 1
 2491  1633  1635 1
 2492  1633  1637 1
 2493  1633  1638 1
 2494  1633  1639 1
 2495  1634  1651 1
 2496  1634  1671 1
 2497  1635  1671 1
 2498  1636  1640 1
 2499  1639  1662 1
 2500  1641  1644 1
 2501  1641  1645 1
 2502  1641  1646 1
 2503  1641  1664 1
 2504  1641  1675 1
 2505  1641  1676 1
 2506  1642  1644 1
 2507  1642  1648 1
 2508  1643  1645 1
 2509  1643  1648 1
 2510  1643  1649 1
 2511  1646  1650 1
 2512  1646  1671 1
 2513  1647  1652 1
 2514  1649  1652 1
 2515  1651  1654 1
 2516  1651  1655 1
 2517  1651  1665 1
 2518  1652  1654 1
 2519  1652  1658 1
 2520  1653  1655 1
 2521  1653  1657 1
 2522  1653  1658 1
 2523  1653  1659 1
 2524  1654  1671 1
 2525  1655  1661 1
 2526  1656  1660 1
 2527  1656  1661 1
 2528  1657  1882 1
 2529  1659  1842 1
 2530  1661  1665 1
 2531  1661  1666 1
 2532  1661  1884 1
 2533  1661  1904 1
 2534  1662  1664 1
 2535  1662  1677 1
 2536  1663  1665 1
 2537  1663  1668 1
 2538  1663  1669 1
 2539  1666  1670 1
 2540  1667  1672 1
 2541  1668  1902 1
 2542  1669  1672 1
 2543  1671  1676 1
 2544  1672  1674 1
 2545  1672  1678 1
 2546  1673  1675 1
 2547  1673  1677 1
 2548  1673  1678 1
 2549  1673  1679 1
 2550  1676  1680 1
 2551  1681  1684 1
 2552  1681  1685 1
 2553  1681  1686 1
 2554  1681  1704 1
 2555  1681  1715 1
 2556  1681  1716 1
 2557  1682  1684 1
 2558  1682  1688 1
 2559  1683  1685 1
 2560  1683  1688 1
 2561  1683  1689 1
 2562  1683  1727 1
 2563  1685  1751 1
 2564  1686  1690 1
 2565  1686  1711 1
 2566  1687  1692 1
 2567  1687  1883 1
 2568  1689  1692 1
 2569  1691  1694 1
 2570  1691  1695 1
 2571  1691  1705 1
 2572  1691  1896 1
 2573  1691  1906 1
 2574  1691  1914 1
 2575  1692  1694 1
 2576  1692  1698 1
 2577  1693  1695 1
 2578  1693  1697 1
 2579  1693  1698 1
 2580  1693  1699 1
 2581  1694  1711 1
 2582  1695  1701 1
 2583  1696  1700 1
 2584  1696  1701 1
 2585  1696  1731 1
 2586  1701  1705 1
 2587  1701  1706 1
 2588  1702  1704 1
 2589  1702  1717 1
 2590  1702  1919 1
 2591  1703  1705 1
 2592  1703  1708 1
 2593  1703  1709 1
 2594  1703  1907 1
 2595  1706  1710 1
 2596  1706  1731 1
 2597  1707  1712 1
 2598  1707  1743 1
 2599  1709  1712 1
 2600  1711  1716 1
 2601  1711  1885 1
 2602  1711  1914 1
 2603  1711  1915 1
 2604  1712  1714 1
 2605  1712  1718 1
 2606  1713  1715 1
 2607  1713  1717 1
 2608  1713  1718 1
 2609  1713  1719 1
 2610  1714  1731 1
 2611  1714  1751 1
 2612  1715  1751 1
 2613  1716  1720 1
 2614  1719  1742 1
 2615  1721  1724 1
 2616  1721  1725 1
 2617  1721  1726 1
 2618  1721  1744 1
 2619  1721  1755 1
 2620  1721  1756 1
 2621  1722  1724 1
 2622  1722  1728 1
 2623  1723  1725 1
 2624  1723  1728 1
 2625  1723  1729 1
 2626  1723  1767 1
 2627  1725  1791 1
 2628  1726  1730 1
 2629  1726  1751 1
 2630  1727  1732 1
 2631  1729  1732 1
 2632  1731  1734 1
 2633  1731  1735 1
 2634  1731  1745 1
 2635  1732  1734 1
 2636  1732  1738 1
 2637  1733  1735 1
 2638  1733  1737 1
 2639  1733  1738 1
 2640  1733  1739 1
 2641  1734  1751 1
 2642  1735  1741 1
 2643  1736  1740 1
 2644  1736  1741 1
 2645  1736  1771 1
 2646  1741  1745 1
 2647  1741  1746 1
 2648  1742  1744 1
 2649  1742  1757 1
 2650  1743  1745 1
 2651  1743  1748 1
 2652  1743  1749 1
 2653  1746  1750 1
 2654  1746  1771 1
 2655  1747  1752 1
 2656  1747  1783 1
 2657  1749  1752 1
 2658  1751  1756 1
 2659  1752  1754 1
 2660  1752  1758 1
 2661  1753  1755 1
 2662  1753  1757 1
 2663  1753  1758 1
 2664  1753  1759 1
 2665  1754  1771 1
 2666  1754  1791 1
 2667  1755  1791 1
 2668  1756  1760 1
 2669  1759  1782 1
 2670  1761  1764 1
 2671  1761  1765 1
 2672  1761  1766 1
 2673  1761  1784 1
 2674  1761  1795 1
 2675  1761  1796 1
 2676  1762  1764 1
 2677  1762  1768 1
 2678  1763  1765 1
 2679  1763  1768 1
 2680  1763  1769 1
 2681  1763  1807 1
 2682  1765  1831 1
 2683  1766  1770 1
 2684  1766  1791 1
 2685  1767  1772 1
 2686  1769  1772 1
 2687  1771  1774 1
 2688  1771  1775 1
 2689  1771  1785 1
 2690  1772  1774 1
 2691  1772  1778 1
 2692  1773  1775 1
 2693  1773  1777 1
 2694  1773  1778 1
 2695  1773  1779 1
 2696  1774  1791 1
 2697  1775  1781 1
 2698  1776  1780 1
 2699  1776  1781 1
 2700  1776  1811 1
 2701  1781  1785 1
 2702  1781  1786 1
 2703  1782  1784 1
 2704  1782  1797 1
 2705  1783  1785 1
 2706  1783  1788 1
 2707  1783  1789 1
 2708  1786  1790 1
 2709  1786  1811 1
 2710  1787  1792 1
 2711  1787  1823 1
 2712  1789  1792 1
 2713  1791  1796 1
 2714  1792  1794 1
 2715  1792  1798 1
 2716  1793  1795 1
 2717  1793  1797 1
 2718  1793  1798 1
 2719  1793  1799 1
 2720  1794  1811 1
 2721  1794  1831 1
 2722  1795  1831 1
 2723  1796  1800 1
 2724  1799  1822 1
 2725  1801  1804 1
 2726  1801  1805 1
 2727  1801  1806 1
 2728  1801  1824 1
 2729  1801  1835 1
 2730  1801  1836 1
 2731  1802  1804 1
 2732  1802  1808 1
 2733  1803  1805 1
 2734  1803  1808 1
 2735  1803  1809 1
 2736  1803  1847 1
 2737  1805  1871 1
 2738  1806  1810 1
 2739  1806  1831 1
 2740  1807  1812 1
 2741  1809  1812 1
 2742  1811  1814 1
 2743  1811  1815 1
 2744  1811  1825 1
 2745  1812  1814 1
 2746  1812  1818 1
 2747  1813  1815 1
 2748  1813  1817 1
 2749  1813  1818 1
 2750  1813  1819 1
 2751  1814  1831 1
 2752  1815  1821 1
 2753  1816  1820 1
 2754  1816  1821 1
 2755  1816  1851 1
 2756  1821  1825 1
 2757  1821  1826 1
 2758  1822  1824 1
 2759  1822  1837 1
 2760  1823  1825 1
 2761  1823  1828 1
 2762  1823  1829 1
 2763  1826  1830 1
 2764  1826  1851 1
 2765  1827  1832 1
 2766  1827  1863 1
 2767  1829  1832 1
 2768  1831  1836 1
 2769  1832  1834 1
 2770  1832  1838 1
 2771  1833  1835 1
 2772  1833  1837 1
 2773  1833  1838 1
 2774  1833  1839 1
 2775  1834  1851 1
 2776  1834  1871 1
 2777  1835  1871 1
 2778  1836  1840 1
 2779  1839  1862 1
 2780  1841  1844 1
 2781  1841  1845 1
 2782  1841  1846 1
 2783  1841  1864 1
 2784  1841  1875 1
 2785  1841  1876 1
 2786  1842  1844 1
 2787  1842  1848 1
 2788  1843  1845 1
 2789  1843  1848 1
 2790  1843  1849 1
 2791  1843  1887 1
 2792  1845  1911 1
 2793  1846  1850 1
 2794  1846  1871 1
 2795  1847  1852 1
 2796  1849  1852 1
 2797  1851  1854 1
 2798  1851  1855 1
 2799  1851  1865 1
 2800  1852  1854 1
 2801  1852  1858 1
 2802  1853  1855 1
 2803  1853  1857 1
 2804  1853  1858 1
 2805  1853  1859 1
 2806  1854  1871 1
 2807  1855  1861 1
 2808  1856  1860 1
 2809  1856  1861 1
 2810  1856  1891 1
 2811  1861  1865 1
 2812  1861  1866 1
 2813  1862  1864 1
 2814  1862  1877 1
 2815  1863  1865 1
 2816  1863  1868 1
 2817  1863  1869 1
 2818  1866  1870 1
 2819  1866  1891 1
 2820  1867  1872 1
 2821  1867  1903 1
 2822  1869  1872 1
 2823  1871  1876 1
 2824  1872  1874 1
 2825  1872  1878 1
 2826  1873  1875 1
 2827  1873  1877 1
 2828  1873  1878 1
 2829  1873  1879 1
 2830  1874  1891 1
 2831  1874  1911 1
 2832  1875  1911 1
 2833  1876  1880 1
 2834  1879  1902 1
 2835  1881  1884 1
 2836  1881  1885 1
 2837  1881  1886 1
 2838  1881  1904 1
 2839  1881  1915 1
 2840  1881  1916 1
 2841  1882  1884 1
 2842  1882  1888 1
 2843  1883  1885 1
 2844  1883  1888 1
 2845  1883  1889 1
 2846  1886  1890 1
 2847  1886  1911 1
 2848  1887  1892 1
 2849  1889  1892 1
 2850  1891  1894 1
 2851  1891  1895 1
 2852  1891  1905 1
 2853  1892  1894 1
 2854  1892  1898 1
 2855  1893  1895 1
 2856  1893  1897 1
 2857  1893  1898 1
 2858  1893  1899 1
 2859  1894  1911 1
 2860  1895  1901 1
 2861  1896  1900 1
 2862  1896  1901 1
 2863  1901  1905 1
 2864  1901  1906 1
 2865  1902  1904 1
 2866  1902  1917 1
 2867  1903  1905 1
 2868  1903  1908 1
 2869  1903  1909 1
 2870  1906  1910 1
 2871  1907  1912 1
 2872  1909  1912 1
 2873  1911  1916 1
 2874  1912  1914 1
 2875  1912  1918 1
 2876  1913  1915 1
 2877  1913  1917 1
 2878  1913  1918 1
 2879  1913  1919 1
 2880  1916  1920 1
 2881  1953  1954 1
 2882  1953  1955 1
 2883  1956  1957 1
 2884  1956  1958 1
 2885  1959  1960 1
 2886  1959  1961 1
 2887  1962  1963 1
 2888  1962  1964 1
 2889  1965  1966 1
 2890  1965  1967 1
 2891  1968  1969 1
 2892  1968  1970 1
 2893  1971  1972 1
 2894  1971  1973 1
 2895  1974  1975 1
 2896  1974  1976 1
 2897  1977  1978 1
 2898  1977  1979 1
 2899  1980  1981 1
 2900  1980  1982 1
 2901  1983  1984 1
 2902  1983  1985 1
 2903  1986  1987 1
 2904  1986  1988 1
 2905  1989  1990 1
 2906  1989  1991 1
 2907  1992  1993 1
 2908  1992  1994 1
 2909  1995  1996 1
 2910  1995  1997 1
 2911  1998  1999 1
 2912  1998  2000 1
 2913  2001  2002 1
 2914  2001  2003 1
 2915  2004  2005 1
 2916  2004  2006 1
 2917  2007  2008 1
 2918  2007  2009 1
 2919  2010  2011 1
 2920  2010  2012 1
 2921  2013  2014 1
 2922  2013  2015 1
 2923  2016  2017 1
 2924  2016  2018 1
 2925  2019  2020 1
 2926  2019  2021 1
 2927  2022  2023 1
 2928  2022  2024 1
 2929  2025  2026 1
 2930  2025  2027 1
 2931  2028  2029 1
 2932  2028  2030 1
 2933  2031  2032 1
 2934  2031  2033 1
 2935  2034  2035 1
 2936  2034  2036 1
 2937  2037  2038 1
 2938  2037  2039 1
 2939  2040  2041 1
 2940  2040  2042 1
 2941  2043  2044 1
 2942  2043  2045 1
 2943  2046  2047 1
 2944  2046  2048 1
 2945  2049  2050 1
 2946  2049  2051 1
 2947  2052  2053 1
 2948  2052  2054 1
 2949  2055  2056 1
 2950  2055  2057 1
 2951  2058  2059 1
 2952  2058  2060 1
 2953  2061  2062 1
 2954  2061  2063 1
 2955  2064  2065 1
 2956  2064  2066 1
 2957  2067  2068 1
 2958  2067  2069 1
 2959  2070  2071 1
 2960  2070  2072 1
 2961  2073  2074 1
 2962  2073  2075 1
 2963  2076  2077 1
 2964  2076  2078 1
 2965  2079  2080 1
 2966  2079  2081 1
 2967  2082  2083 1
 2968  2082  2084 1
 2969  2085  2086 1
 2970  2085  2087 1
 2971  2088  2089 1
 2972  2088  2090 1
 2973  2091  2092 1
 2974  2091  2093 1
 2975  2094  2095 1
 2976  2094  2096 1
 2977  2097  2098 1
 2978  2097  2099 1
 2979  2100  2101 1
 2980  2100  2102 1
 2981  2103  2104 1
 2982  2103  2105 1
 2983  2106  2107 1
 2984  2106  2108 1
 2985  2109  2110 1
 2986  2109  2111 1
 2987  2112  2113 1
 2988  2112  2114 1
 2989  2115  2116 1
 2990  2115  2117 1
 2991  2118  2119 1
 2992  2118  2120 1
 2993  2121  2122 1
 2994  2121  2123 1
 2995  2124  2125 1
 2996  2124  2126 1
 2997  2127  2128 1
 2998  2127  2129 1
 2999  2130  2131 1
 3000  2130  2132 1
 3001  2133  2134 1
 3002  2133  2135 1
 3003  2136  2137 1
 3004  2136  2138 1
 3005  2139  2140 1
 3006  2139  2141 1
 3007  2142  2143 1
 3008  2142  2144 1
 3009  2145  2146 1
 3010  2145  2147 1
 3011  2148  2149 1
 3012  2148  2150 1
 3013  2151  2152 1
 3014  2151  2153 1
 3015  2154  2155 1
 3016  2154  2156 1
 3017  2157  2158 1
 3018  2157  2159 1
 3019  2160  2161 1
 3020  2160  2162 1
 3021  2163  2164 1
 3022  2163  2165 1
 3023  2166  2167 1
 3024  2166  2168 1
 3025  2169  2170 1
 3026  2169  2171 1
 3027  2172  2173 1
 3028  2172  2174 1
 3029  2175  2176 1
 3030  2175  2177 1
 3031  2178  2179 1
 3032  2178  2180 1
 3033  2181  2182 1
 3034  2181  2183 1
 3035  2184  2185 1
 3036  2184  2186 1
 3037  2187  2188 1
 3038  2187  2189 1
 3039  2190  2191 1
 3040  2190  2192 1
 3041  2193  2194 1
 3042  2193  2195 1
 3043  2196  2197 1
 3044  2196  2198 1
 3045  2199  2200 1
 3046  2199  2201 1
 3047  2202  2203 1
 3048  2202  2204 1
 3049  2205  2206 1
 3050  2205  2207 1
 3051  2208  2209 1
 3052  2208  2210 1
 3053  2211  2212 1
 3054  2211  2213 1
 3055  2214  2215 1
 3056  2214  2216 1
 3057  2217  2218 1
 3058  2217  2219 1
 3059  2220  2221 1
 3060  2220  2222 1
 3061  2223  2224 1
 3062  2223  2225 1
 3063  2226  2227 1
 3064  2226  2228 1
 3065  2229  2230 1
 3066  2229  2231 1
 3067  2232  2233 1
 3068  2232  2234 1
 3069  2235  2236 1
 3070  2235  2237 1
 3071  2238  2239 1
 3072  2238  2240 1
 3073  2241  2242 1
 3074  2241  2243 1
 3075  2244  2245 1
 3076  2244  2246 1
 3077  2247  2248 1
 3078  2247  2249 1
 3079  2250  2251 1
 3080  2250  2252 1
 3081  2253  2254 1
 3082  2253  2255 1
 3083  2256  2257 1
 3084  2256  2258 1
 3085  2259  2260 1
 3086  2259  2261 1
 3087  2262  2263 1
 3088  2262  2264 1
 3089  2265  2266 1
 3090  2265  2267 1
 3091  2268  2269 1
 3092  2268  2270 1
 3093  2271  2272 1
 3094  2271  2273 1
 3095  2274  2275 1
 3096  2274  2276 1
 3097  2277  2278 1
 3098  2277  2279 1
 3099  2280  2281 1
 3100  2280  2282 1
 3101  2283  2284 1
 3102  2283  2285 1
 3103  2286  2287 1
 3104  2286  2288 1
 3105  2289  2290 1
 3106  2289  2291 1
 3107  2292  2293 1
 3108  2292  2294 1
 3109  2295  2296 1
 3110  2295  2297 1
 3111  2298  2299 1
 3112  2298  2300 1
 3113  2301  2302 1
 3114  2301  2303 1
 3115  2304  2305 1
 3116  2304  2306 1
 3117  2307  2308 1
 3118  2307  2309 1
 3119  2310  2311 1
 3120  2310  2312 1
 3121  2313  2314 1
 3122  2313  2315 1
 3123  2316  2317 1
 3124  2316  2318 1
 3125  2319  2320 1
 3126  2319  2321 1
 3127  2322  2323 1
 3128  2322  2324 1
 3129  2325  2326 1
 3130  2325  2327 1
 3131  2328  2329 1
 3132  2328  2330 1
 3133  2331  2332 1
 3134  2331  2333 1
 3135  2334  2335 1
 3136  2334  2336 1
 3137  2337  2338 1
 3138  2337  2339 1
 3139  2340  2341 1
 3140  2340  2342 1
 3141  2343  2344 1
 3142  2343  2345 1
 3143  2346  2347 1
 3144  2346  2348 1
 3145  2349  2350 1
 3146  2349  2351 1
 3147  2352  2353 1
 3148  2352  2354 1
 3149  2355  2356 1
 3150  2355  2357 1
 3151  2358  2359 1
 3152  2358  2360 1
 3153  2361  2362 1
 3154  2361  2363 1
 3155  2364  2365 1
 3156  2364  2366 1
 3157  2367  2368 1
 3158  2367  2369 1
 3159  2370  2371 1
 3160  2370  2372 1
 3161  2373  2374 1
 3162  2373  2375 1
 3163  2376  2377 1
 3164  2376  2378 1
 3165  2379  2380 1
 3166  2379  2381 1
 3167  2382  2383 1
 3168  2382  2384 1
 3169  2385  2386 1
 3170  2385  2387 1
 3171  2388  2389 1
 3172  2388  2390 1
 3173  2391  2392 1
 3174  2391  2393 1
 3175  2394  2395 1
 3176  2394  2396 1
 3177  2397  2398 1
 3178  2397  2399 1
 3179  2400  2401 1
 3180  2400  2402 1
 3181  2403  2404 1
 3182  2403  2405 1
 3183  2406  2407 1
 3184  2406  2408 1
 3185  2409  2410 1
 3186  2409  2411 1
 3187  2412  2413 1
 3188  2412  2414 1
 3189  2415  2416 1
 3190  2415  2417 1
 3191  2418  2419 1
 3192  2418  2420 1
 3193  2421  2422 1
 3194  2421  2423 1
 3195  2424  2425 1
 3196  2424  2426 1
 3197  2427  2428 1
 3198  2427  2429 1
 3199  2430  2431 1
 3200  2430  2432 1
 3201  2433  2434 1
 3202  2433  2435 1
 3203  2436  2437 1
 3204  2436  2438 1
 3205  2439  2440 1
 3206  2439  2441 1
 3207  2442  2443 1
 3208  2442  2444 1
 3209  2445  2446 1
 3210  2445  2447 1
 3211  2448  2449 1
 3212  2448  2450 1
 3213  2451  2452 1
 3214  2451  2453 1
 3215  2454  2455 1
 3216  2454  2456 1
 3217  2457  2458 1
 3218  2457  2459 1
 3219  2460  2461 1
 3220  2460  2462 1
 3221  2463  2464 1
 3222  2463  2465 1
 3223  2466  2467 1
 3224  2466  2468 1
 3225  2469  2470 1
 3226  2469  2471 1
 3227  2472  2473 1
 3228  2472  2474 1
 3229  2475  2476 1
 3230  2475  2477 1
 3231  2478  2479 1
 3232  2478  2480 1
 3233  2481  2482 1
 3234  2481  2483 1
 3235  2484  2485 1
 3236  2484  2486 1
 3237  2487  2488 1
 3238  2487  2489 1
 3239  2490  2491 1
 3240  2490  2492 1
 3241  2493  2494 1
 3242  2493  2495 1
 3243  2496  2497 1
 3244  2496  2498 1
 3245  2499  2500 1
 3246  2499  2501 1
 3247  2502  2503 1
 3248  2502  2504 1
 3249  2505  2506 1
 3250  2505  2507 1
 3251  2508  2509 1
 3252  2508  2510 1
 3253  2511  2512 1
 3254  2511  2513 1
 3255  2514  2515 1
 3256  2514  2516 1
 3257  2517  2518 1
 3258  2517  2519 1
 3259  2520  2521 1
 3260  2520  2522 1
 3261  2523  2524 1
 3262  2523  2525 1
 3263  2526  2527 1
 3264  2526  2528 1
 3265  2529  2530 1
 3266  2529  2531 1
 3267  2532  2533 1
 3268  2532  2534 1
 3269  2535  2536 1
 3270  2535  2537 1
 3271  2538  2539 1
 3272  2538  2540 1
 3273  2541  2542 1
 3274  2541  2543 1
 3275  2544  2545 1
 3276  2544  2546 1
 3277  2547  2548 1
 3278  2547  2549 1
 3279  2550  2551 1
 3280  2550  2552 1
 3281  2553  2554 1
 3282  2553  2555 1
 3283  2556  2557 1
 3284  2556  2558 1
 3285  2559  2560 1
 3286  2559  2561 1
 3287  2562  2563 1
 3288  2562  2564 1
 3289  2565  2566 1
 3290  2565  2567 1
 3291  2568  2569 1
 3292  2568  2570 1
 3293  2571  2572 1
 3294  2571  2573 1
 3295  2574  2575 1
 3296  2574  2576 1
 3297  2577  2578 1
 3298  2577  2579 1
 3299  2580  2581 1
 3300  2580  2582 1
 3301  2583  2584 1
 3302  2583  2585 1
 3303  2586  2587 1
 3304  2586  2588 1
 3305  2589  2590 1
 3306  2589  2591 1
 3307  2592  2593 1
 3308  2592  2594 1
 3309  2595  2596 1
 3310  2595  2597 1
 3311  2598  2599 1
 3312  2598  2600 1
 3313  2601  2602 1
 3314  2601  2603 1
 3315  2604  2605 1
 3316  2604  2606 1
 3317  2607  2608 1
 3318  2607  2609 1
 3319  2610  2611 1
 3320  2610  2612 1
 3321  2613  2614 1
 3322  2613  2615 1
 3323  2616  2617 1
 3324  2616  2618 1
 3325  2619  2620 1
 3326  2619  2621 1
 3327  2622  2623 1
 3328  2622  2624 1
 3329  2625  2626 1
 3330  2625  2627 1
 3331  2628  2629 1
 3332  2628  2630 1
 3333  2631  2632 1
 3334  2631  2633 1
 3335  2634  2635 1
 3336  2634  2636 1
 3337  2637  2638 1
 3338  2637  2639 1
 3339  2640  2641 1
 3340  2640  2642 1
 3341  2643  2644 1
 3342  2643  2645 1
 3343  2646  2647 1
 3344  2646  2648 1
 3345  2649  2650 1
 3346  2649  2651 1
 3347  2652  2653 1
 3348  2652  2654 1
 3349  2655  2656 1
 3350  2655  2657 1
 3351  2658  2659 1
 3352  2658  2660 1
 3353  2661  2662 1
 3354  2661  2663 1
 3355  2664  2665 1
 3356  2664  2666 1
 3357  2667  2668 1
 3358  2667  2669 1
 3359  2670  2671 1
 3360  2670  2672 1
 3361  2673  2674 1
 3362  2673  2675 1
 3363  2676  2677 1
 3364  2676  2678 1
 3365  2679  2680 1
 3366  2679  2681 1
 3367  2682  2683 1
 3368  2682  2684 1
 3369  2685  2686 1
 3370  2685  2687 1
 3371  2688  2689 1
 3372  2688  2690 1
 3373  2691  2692 1
 3374  2691  2693 1
 3375  2694  2695 1
 3376  2694  2696 1
 3377  2697  2698 1
 3378  2697  2699 1
 3379  2700  2701 1
 3380  2700  2702 1
 3381  2703  2704 1
 3382  2703  2705 1
 3383  2706  2707 1
 3384  2706  2708 1
 3385  2709  2710 1
 3386  2709  2711 1
 3387  2712  2713 1
 3388  2712  2714 1
 3389  2715  2716 1
 3390  2715  2717 1
 3391  2718  2719 1
 3392  2718  2720 1
 3393  2721  2722 1
 3394  2721  2723 1
 3395  2724  2725 1
 3396  2724  2726 1
 3397  2727  2728 1
 3398  2727  2729 1
 3399  2730  2731 1
 3400  2730  2732 1
 3401  2733  2734 1
 3402  2733  2735 1
 3403  2736  2737 1
 3404  2736  2738 1
 3405  2739  2740 1
 3406  2739  2741 1
 3407  2742  2743 1
 3408  2742  2744 1
 3409  2745  2746 1
 3410  2745  2747 1
 3411  2748  2749 1
 3412  2748  2750 1
 3413  2751  2752 1
 3414  2751  2753 1
 3415  2754  2755 1
 3416  2754  2756 1
 3417  2757  2758 1
 3418  2757  2759 1
 3419  2760  2761 1
 3420  2760  2762 1
 3421  2763  2764 1
 3422  2763  2765 1
 3423  2766  2767 1
 3424  2766  2768 1
 3425  2769  2770 1
 3426  2769  2771 1
 3427  2772  2773 1
 3428  2772  2774 1
 3429  2775  2776 1
 3430  2775  2777 1
 3431  2778  2779 1
 3432  2778  2780 1
 3433  2781  2782 1
 3434  2781  2783 1
 3435  2784  2785 1
 3436  2784  2786 1
 3437  2787  2788 1
 3438  2787  2789 1
 3439  2790  2791 1
 3440  2790  2792 1
 3441  2793  2794 1
 3442  2793  2795 1
 3443  2796  2797 1
 3444  2796  2798 1
 3445  2799  2800 1
 3446  2799  2801 1
 3447  2802  2803 1
 3448  2802  2804 1
 3449  2805  2806 1
 3450  2805  2807 1
 3451  2808  2809 1
 3452  2808  2810 1
 3453  2811  2812 1
 3454  2811  2813 1
 3455  2814  2815 1
 3456  2814  2816 1
 3457  2817  2818 1
 3458  2817  2819 1
 3459  2820  2821 1
 3460  2820  2822 1
 3461  2823  2824 1
 3462  2823  2825 1
 3463  2826  2827 1
 3464  2826  2828 1
 3465  2829  2830 1
 3466  2829  2831 1
 3467  2832  2833 1
 3468  2832  2834 1
 3469  2835  2836 1
 3470  2835  2837 1
 3471  2838  2839 1
 3472  2838  2840 1
 3473  2841  2842 1
 3474  2841  2843 1
 3475  2844  2845 1
 3476  2844  2846 1
 3477  2847  2848 1
 3478  2847  2849 1
 3479  2850  2851 1
 3480  2850  2852 1
 3481  2853  2854 1
 3482  2853  2855 1
 3483  2856  2857 1
 3484  2856  2858 1
 3485  2859  2860 1
 3486  2859  2861 1
 3487  2862  2863 1
 3488  2862  2864 1
 3489  2865  2866 1
 3490  2865  2867 1
 3491  2868  2869 1
 3492  2868  2870 1
 3493  2871  2872 1
 3494  2871  2873 1
 3495  2874  2875 1
 3496  2874  2876 1
 3497  2877  2878 1
 3498  2877  2879 1
 3499  2880  2881 1
 3500  2880  2882 1
 3501  2883  2884 1
 3502  2883  2885 1
 3503  2886  2887 1
 3504  2886  2888 1
 3505  2889  2890 1
 3506  2889  2891 1
 3507  2892  2893 1
 3508  2892  2894 1
 3509  2895  2896 1
 3510  2895  2897 1
 3511  2898  2899 1
 3512  2898  2900 1
 3513  2901  2902 1
 3514  2901  2903 1
 3515  2904  2905 1
 3516  2904  2906 1
 3517  2907  2908 1
 3518  2907  2909 1
 3519  2910  2911 1
 3520  2910  2912 1
 3521  2913  2914 1
 3522  2913  2915 1
 3523  2916  2917 1
 3524  2916  2918 1
 3525  2919  2920 1
 3526  2919  2921 1
 3527  2922  2923 1
 3528  2922  2924 1
 3529  2925  2926 1
 3530  2925  2927 1
 3531  2928  2929 1
 3532  2928  2930 1
 3533  2931  2932 1
 3534  2931  2933 1
 3535  2934  2935 1
 3536  2934  2936 1
 3537  2937  2938 1
 3538  2937  2939 1
 3539  2940  2941 1
 3540  2940  2942 1
 3541  2943  2944 1
 3542  2943  2945 1
 3543  2946  2947 1
 3544  2946  2948 1
 3545  2949  2950 1
 3546  2949  2951 1
 3547  2952  2953 1
 3548  2952  2954 1
 3549  2955  2956 1
 3550  2955  2957 1
 3551  2958  2959 1
 3552  2958  2960 1
 3553  2961  2962 1
 3554  2961  2963 1
 3555  2964  2965 1
 3556  2964  2966 1
 3557  2967  2968 1
 3558  2967  2969 1
 3559  2970  2971 1
 3560  2970  2972 1
 3561  2973  2974 1
 3562  2973  2975 1
 3563  2976  2977 1
 3564  2976  2978 1
 3565  2979  2980 1
 3566  2979  2981 1
 3567  2982  2983 1
 3568  2982  2984 1
 3569  2985  2986 1
 3570  2985  2987 1
 3571  2988  2989 1
 3572  2988  2990 1
 3573  2991  2992 1
 3574  2991  2993 1
 3575  2994  2995 1
 3576  2994  2996 1
 3577  2997  2998 1
 3578  2997  2999 1
 3579  3000  3001 1
 3580  3000  3002 1
 3581  3003  3004 1
 3582  3003  3005 1
 3583  3006  3007 1
 3584  3006  3008 1
 3585  3009  3010 1
 3586  3009  3011 1
 3587  3012  3013 1
 3588  3012  3014 1
 3589  3015  3016 1
 3590  3015  3017 1
 3591  3018  3019 1
 3592  3018  3020 1
 3593  3021  3022 1
 3594  3021  3023 1
 3595  3024  3025 1
 3596  3024  3026 1
 3597  3027  3028 1
 3598  3027  3029 1
 3599  3030  3031 1
 3600  3030  3032 1
 3601  3033  3034 1
 3602  3033  3035 1
 3603  3036  3037 1
 3604  3036  3038 1
 3605  3039  3040 1
 3606  3039  3041 1
 3607  3042  3043 1
 3608  3042  3044 1
 3609  3045  3046 1
 3610  3045  3047 1
 3611  3048  3049 1
 3612  3048  3050 1
 3613  3051  3052 1
 3614  3051  3053 1
 3615  3054  3055 1
 3616  3054  3056 1
 3617  3057  3058 1
 3618  3057  3059 1
 3619  3060  3061 1
 3620  3060  3062 1
 3621  3063  3064 1
 3622  3063  3065 1
 3623  3066  3067 1
 3624  3066  3068 1
 3625  3069  3070 1
 3626  3069  3071 1
 3627  3072  3073 1
 3628  3072  3074 1
 3629  3075  3076 1
 3630  3075  3077 1
 3631  3078  3079 1
 3632  3078  3080 1
 3633  3081  3082 1
 3634  3081  3083 1
 3635  3084  3085 1
 3636  3084  3086 1
 3637  3087  3088 1
 3638  3087  3089 1
 3639  3090  3091 1
 3640  3090  3092 1
 3641  3093  3094 1
 3642  3093  3095 1
 3643  3096  3097 1
 3644  3096  3098 1
 3645  3099  3100 1
 3646  3099  3101 1
 3647  3102  3103 1
 3648  3102  3104 1
 3649  3105  3106 1
 3650  3105  3107 1
 3651  3108  3109 1
 3652  3108  3110 1
 3653  3111  3112 1
 3654  3111  3113 1
 3655  3114  3115 1
 3656  3114  3116 1
 3657  3117  3118 1
 3658  3117  3119 1
 3659  3120  3121 1
 3660  3120  3122 1
 3661  3123  3124 1
 3662  3123  3125 1
 3663  3126  3127 1
 3664  3126  3128 1
 3665  3129  3130 1
 3666  3129  3131 1
 3667  3132  3133 1
 3668  3132  3134 1
 3669  3135  3136 1
 3670  3135  3137 1
 3671  3138  3139 1
 3672  3138  3140 1
 3673  3141  3142 1
 3674  3141  3143 1
 3675  3144  3145 1
 3676  3144  3146 1
 3677  3147  3148 1
 3678  3147  3149 1
 3679  3150  3151 1
 3680  3150  3152 1
 3681  3153  3154 1
 3682  3153  3155 1
 3683  3156  3157 1
 3684  3156  3158 1
 3685  3159  3160 1
 3686  3159  3161 1
 3687  3162  3163 1
 3688  3162  3164 1
 3689  3165  3166 1
 3690  3165  3167 1
 3691  3168  3169 1
 3692  3168  3170 1
 3693  3171  3172 1
 3694  3171  3173 1
 3695  3174  3175 1
 3696  3174  3176 1
 3697  3177  3178 1
 3698  3177  3179 1
 3699  3180  3181 1
 3700  3180  3182 1
 3701  3183  3184 1
 3702  3183  3185 1
 3703  3186  3187 1
 3704  3186  3188 1
 3705  3189  3190 1
 3706  3189  3191 1
 3707  3192  3193 1
 3708  3192  3194 1
 3709  3195  3196 1
 3710  3195  3197 1
 3711  3198  3199 1
 3712  3198  3200 1
 3713  3201  3202 1
 3714  3201  3203 1
 3715  3204  3205 1
 3716  3204  3206 1
 3717  3207  3208 1
 3718  3207  3209 1
 3719  3210  3211 1
 3720  3210  3212 1
 3721  3213  3214 1
 3722  3213  3215 1
 3723  3216  3217 1
 3724  3216  3218 1
 3725  3219  3220 1
 3726  3219  3221 1
 3727  3222  3223 1
 3728  3222  3224 1
 3729  3225  3226 1
 3730  3225  3227 1
 3731  3228  3229 1
 3732  3228  3230 1
 3733  3231  3232 1
 3734  3231  3233 1
 3735  3234  3235 1
 3736  3234  3236 1
 3737  3237  3238 1
 3738  3237  3239 1
 3739  3240  3241 1
 3740  3240  3242 1
 3741  3243  3244 1
 3742  3243  3245 1
 3743  3246  3247 1
 3744  3246  3248 1
 3745  3249  3250 1
 3746  3249  3251 1
 3747  3252  3253 1
 3748  3252  3254 1
 3749  3255  3256 1
 3750  3255  3257 1
 3751  3258  3259 1
 3752  3258  3260 1
 3753  3261  3262 1
 3754  3261  3263 1
 3755  3264  3265 1
 3756  3264  3266 1
 3757  3267  3268 1
 3758  3267  3269 1
 3759  3270  3271 1
 3760  3270  3272 1
 3761  3273  3274 1
 3762  3273  3275 1
 3763  3276  3277 1
 3764  3276  3278 1
 3765  3279  3280 1
 3766  3279  3281 1
 3767  3282  3283 1
 3768  3282  3284 1
 3769  3285  3286 1
 3770  3285  3287 1
 3771  3288  3289 1
 3772  3288  3290 1
 3773  3291  3292 1
 3774  3291  3293 1
 3775  3294  3295 1
 3776  3294  3296 1
 3777  3297  3298 1
 3778  3297  3299 1
 3779  3300  3301 1
 3780  3300  3302 1
 3781  3303  3304 1
 3782  3303  3305 1
 3783  3306  3307 1
 3784  3306  3308 1
 3785  3309  3310 1
 3786  3309  3311 1
 3787  3312  3313 1
 3788  3312  3314 1
 3789  3315  3316 1
 3790  3315  3317 1
 3791  3318  3319 1
 3792  3318  3320 1
 3793  3321  3322 1
 3794  3321  3323 1
 3795  3324  3325 1
 3796  3324  3326 1
 3797  3327  3328 1
 3798  3327  3329 1
 3799  3330  3331 1
 3800  3330  3332 1
 3801  3333  3334 1
 3802  3333  3335 1
 3803  3336  3337 1
 3804  3336  3338 1
 3805  3339  3340 1
 3806  3339  3341 1
 3807  3342  3343 1
 3808  3342  3344 1
 3809  3345  3346 1
 3810  3345  3347 1
 3811  3348  3349 1
 3812  3348  3350 1
 3813  3351  3352 1
 3814  3351  3353 1
 3815  3354  3355 1
 3816  3354  3356 1
 3817  3357  3358 1
 3818  3357  3359 1
 3819  3360  3361 1
 3820  3360  3362 1
 3821  3363  3364 1
 3822  3363  3365 1
 3823  3366  3367 1
 3824  3366  3368 1
 3825  3369  3370 1
 3826  3369  3371 1
 3827  3372  3373 1
 3828  3372  3374 1
 3829  3375  3376 1
 3830  3375  3377 1
 3831  3378  3379 1
 3832  3378  3380 1
 3833  3381  3382 1
 3834  3381  3383 1
 3835  3384  3385 1
 3836  3384  3386 1
 3837  3387  3388 1
 3838  3387  3389 1
 3839  3390  3391 1
 3840  3390  3392 1
 3841  3393  3394 1
 3842  3393  3395 1
 3843  3396  3397 1
 3844  3396  3398 1
 3845  3399  3400 1
 3846  3399  3401 1
 3847  3402  3403 1
 3848  3402  3404 1
 3849  3405  3406 1
 3850  3405  3407 1
 3851  3408  3409 1
 3852  3408  3410 1
 3853  3411  3412 1
 3854  3411  3413 1
 3855  3414  3415 1
 3856  3414  3416 1
 3857  3417  3418 1
 3858  3417  3419 1
 3859  3420  3421 1
 3860  3420  3422 1
 3861  3423  3424 1
 3862  3423  3425 1
 3863  3426  3427 1
 3864  3426  3428 1
 3865  3429  3430 1
 3866  3429  3431 1
 3867  3432  3433 1
 3868  3432  3434 1
 3869  3435  3436 1
 3870  3435  3437 1
 3871  3438  3439 1
 3872  3438  3440 1
 3873  3441  3442 1
 3874  3441  3443 1
 3875  3444  3445 1
 3876  3444  3446 1
 3877  3447  3448 1
 3878  3447  3449 1
 3879  3450  3451 1
 3880  3450  3452 1
 3881  3453  3454 1
 3882  3453  3455 1
 3883  3456  3457 1
 3884  3456  3458 1
 3885  3459  3460 1
 3886  3459  3461 1
 3887  3462  3463 1
 3888  3462  3464 1
 3889  3465  3466 1
 3890  3465  3467 1
 3891  3468  3469 1
 3892  3468  3470 1
 3893  3471  3472 1
 3894  3471  3473 1
 3895  3474  3475 1
 3896  3474  3476 1
 3897  3477  3478 1
 3898  3477  3479 1
 3899  3480  3481 1
 3900  3480  3482 1
 3901  3483  3484 1
 3902  3483  3485 1
 3903  3486  3487 1
 3904  3486  3488 1
 3905  3489  3490 1
 3906  3489  3491 1
 3907  3492  3493 1
 3908  3492  3494 1
 3909  3495  3496 1
 3910  3495  3497 1
 3911  3498  3499 1
 3912  3498  3500 1
 3913  3501  3502 1
 3914  3501  3503 1
 3915  3504  3505 1
 3916  3504  3506 1
 3917  3507  3508 1
 3918  3507  3509 1
 3919  3510  3511 1
 3920  3510  3512 1
 3921  3513  3514 1
 3922  3513  3515 1
 3923  3516  3517 1
 3924  3516  3518 1
 3925  3519  3520 1
 3926  3519  3521 1
 3927  3522  3523 1
 3928  3522  3524 1
 3929  3525  3526 1
 3930  3525  3527 1
 3931  3528  3529 1
 3932  3528  3530 1
 3933  3531  3532 1
 3934  3531  3533 1
 3935  3534  3535 1
 3936  3534  3536 1
 3937  3537  3538 1
 3938  3537  3539 1
 3939  3540  3541 1
 3940  3540  3542 1
 3941  3543  3544 1
 3942  3543  3545 1
 3943  3546  3547 1
 3944  3546  3548 1
 3945  3549  3550 1
 3946  3549  3551 1
 3947  3552  3553 1
 3948  3552  3554 1
 3949  3555  3556 1
 3950  3555  3557 1
 3951  3558  3559 1
 3952  3558  3560 1
 3953  3561  3562 1
 3954  3561  3563 1
 3955  3564  3565 1
 3956  3564  3566 1
 3957  3567  3568 1
 3958  3567  3569 1
 3959  3570  3571 1
 3960  3570  3572 1
 3961  3573  3574 1
 3962  3573  3575 1
 3963  3576  3577 1
 3964  3576  3578 1
 3965  3579  3580 1
 3966  3579  3581 1
 3967  3582  3583 1
 3968  3582  3584 1
 3969  3585  3586 1
 3970  3585  3587 1
 3971  3588  3589 1
 3972  3588  3590 1
 3973  3591  3592 1
 3974  3591  3593 1
 3975  3594  3595 1
 3976  3594  3596 1
 3977  3597  3598 1
 3978  3597  3599 1
 3979  3600  3601 1
 3980  3600  3602 1
 3981  3603  3604 1
 3982  3603  3605 1
 3983  3606  3607 1
 3984  3606  3608 1
 3985  3609  3610 1
 3986  3609  3611 1
 3987  3612  3613 1
 3988  3612  3614 1
 3989  3615  3616 1
 3990  3615  3617 1
 3991  3618  3619 1
 3992  3618  3620 1
 3993  3621  3622 1
 3994  3621  3623 1
 3995  3624  3625 1
 3996  3624  3626 1
 3997  3627  3628 1
 3998  3627  3629 1
 3999  3630  3631 1
 4000  3630  3632 1
 4001  3633  3634 1
 4002  3633  3635 1
 4003  3636  3637 1
 4004  3636  3638 1
 4005  3639  3640 1
 4006  3639  3641 1
 4007  3642  3643 1
 4008  3642  3644 1
 4009  3645  3646 1
 4010  3645  3647 1
 4011  3648  3649 1
 4012  3648  3650 1
 4013  3651  3652 1
 4014  3651  3653 1
 4015  3654  3655 1
 4016  3654  3656 1
 4017  3657  3658 1
 4018  3657  3659 1
 4019  3660  3661 1
 4020  3660  3662 1
 4021  3663  3664 1
 4022  3663  3665 1
 4023  3666  3667 1
 4024  3666  3668 1
 4025  3669  3670 1
 4026  3669  3671 1
 4027  3672  3673 1
 4028  3672  3674 1
 4029  3675  3676 1
 4030  3675  3677 1
 4031  3678  3679 1
 4032  3678  3680 1
 4033  3681  3682 1
 4034  3681  3683 1
 4035  3684  3685 1
 4036  3684  3686 1
 4037  3687  3688 1
 4038  3687  3689 1
 4039  3690  3691 1
 4040  3690  3692 1
 4041  3693  3694 1
 4042  3693  3695 1
 4043  3696  3697 1
 4044  3696  3698 1
 4045  3699  3700 1
 4046  3699  3701 1
 4047  3702  3703 1
 4048  3702  3704 1
 4049  3705  3706 1
 4050  3705  3707 1
 4051  3708  3709 1
 4052  3708  3710 1
 4053  3711  3712 1
 4054  3711  3713 1
 4055  3714  3715 1
 4056  3714  3716 1
 4057  3717  3718 1
 4058  3717  3719 1
 4059  3720  3721 1
 4060  3720  3722 1
 4061  3723  3724 1
 4062  3723  3725 1
 4063  3726  3727 1
 4064  3726  3728 1
 4065  3729  3730 1
 4066  3729  3731 1
 4067  3732  3733 1
 4068  3732  3734 1
 4069  3735  3736 1
 4070  3735  3737 1
 4071  3738  3739 1
 4072  3738  3740 1
 4073  3741  3742 1
 4074  3741  3743 1
 4075  3744  3745 1
 4076  3744  3746 1
 4077  3747  3748 1
 4078  3747  3749 1
 4079  3750  3751 1
 4080  3750  3752 1
 4081  3753  3754 1
 4082  3753  3755 1
 4083  3756  3757 1
 4084  3756  3758 1
 4085  3759  3760 1
 4086  3759  3761 1
 4087  3762  3763 1
 4088  3762  3764 1
 4089  3765  3766 1
 4090  3765  3767 1
 4091  3768  3769 1
 4092  3768  3770 1
 4093  3771  3772 1
 4094  3771  3773 1
 4095  3774  3775 1
 4096  3774  3776 1
 4097  3777  3778 1
 4098  3777  3779 1
 4099  3780  3781 1
 4100  3780  3782 1
 4101  3783  3784 1
 4102  3783  3785 1
 4103  3786  3787 1
 4104  3786  3788 1
 4105  3789  3790 1
 4106  3789  3791 1
 4107  3792  3793 1
 4108  3792  3794 1
 4109  3795  3796 1
 4110  3795  3797 1
 4111  3798  3799 1
 4112  3798  3800 1
 4113  3801  3802 1
 4114  3801  3803 1
 4115  3804  3805 1
 4116  3804  3806 1
 4117  3807  3808 1
 4118  3807  3809 1
 4119  3810  3811 1
 4120  3810  3812 1
 4121  3813  3814 1
 4122  3813  3815 1
 4123  3816  3817 1
 4124  3816  3818 1
 4125  3819  3820 1
 4126  3819  3821 1
 4127  3822  3823 1
 4128  3822  3824 1
 4129  3825  3826 1
 4130  3825  3827 1
 4131  3828  3829 1
 4132  3828  3830 1
 4133  3831  3832 1
 4134  3831  3833 1
 4135  3834  3835 1
 4136  3834  3836 1
 4137  3837  3838 1
 4138  3837  3839 1
 4139  3840  3841 1
 4140  3840  3842 1
 4141  3843  3844 1
 4142  3843  3845 1
 4143  3846  3847 1
 4144  3846  3848 1
 4145  3849  3850 1
 4146  3849  3851 1
 4147  3852  3853 1
 4148  3852  3854 1
 4149  3855  3856 1
 4150  3855  3857 1
 4151  3858  3859 1
 4152  3858  3860 1
 4153  3861  3862 1
 4154  3861  3863 1
 4155  3864  3865 1
 4156  3864  3866 1
 4157  3867  3868 1
 4158  3867  3869 1
 4159  3870  3871 1
 4160  3870  3872 1
 4161  3873  3874 1
 4162  3873  3875 1
 4163  3876  3877 1
 4164  3876  3878 1
 4165  3879  3880 1
 4166  3879  3881 1
 4167  3882  3883 1
 4168  3882  3884 1
 4169  3885  3886 1
 4170  3885  3887 1
 4171  3888  3889 1
 4172  3888  3890 1
 4173  3891  3892 1
 4174  3891  3893 1
 4175  3894  3895 1
 4176  3894  3896 1
 4177  3897  3898 1
 4178  3897  3899 1
 4179  3900  3901 1
 4180  3900  3902 1
 4181  3903  3904 1
 4182  3903  3905 1
 4183  3906  3907 1
 4184  3906  3908 1
 4185  3909  3910 1
 4186  3909  3911 1
 4187  3912  3913 1
 4188  3912  3914 1
 4189  3915  3916 1
 4190  3915  3917 1
 4191  3918  3919 1
 4192  3918  3920 1
 4193  3921  3922 1
 4194  3921  3923 1
 4195  3924  3925 1
 4196  3924  3926 1
 4197  3927  3928 1
 4198  3927  3929 1
 4199  3930  3931 1
 4200  3930  3932 1
 4201  3933  3934 1
 4202  3933  3935 1
 4203  3936  3937 1
 4204  3936  3938 1
 4205  3939  3940 1
 4206  3939  3941 1
 4207  3942  3943 1
 4208  3942  3944 1
 4209  3945  3946 1
 4210  3945  3947 1
 4211  3948  3949 1
 4212  3948  3950 1
 4213  3951  3952 1
 4214  3951  3953 1
 4215  3954  3955 1
 4216  3954  3956 1
 4217  3957  3958 1
 4218  3957  3959 1
 4219  3960  3961 1
 4220  3960  3962 1
 4221  3963  3964 1
 4222  3963  3965 1
 4223  3966  3967 1
 4224  3966  3968 1
 4225  3969  3970 1
 4226  3969  3971 1
 4227  3972  3973 1
 4228  3972  3974 1
 4229  3975  3976 1
 4230  3975  3977 1
 4231  3978  3979 1
 4232  3978  3980 1
 4233  3981  3982 1
 4234  3981  3983 1
 4235  3984  3985 1
 4236  3984  3986 1
 4237  3987  3988 1
 4238  3987  3989 1
 4239  3990  3991 1
 4240  3990  3992 1
 4241  3993  3994 1
 4242  3993  3995 1
 4243  3996  3997 1
 4244  3996  3998 1
 4245  3999  4000 1
 4246  3999  4001 1
 4247  4002  4003 1
 4248  4002  4004 1
 4249  4005  4006 1
 4250  4005  4007 1
 4251  4008  4009 1
 4252  4008  4010 1
 4253  4011  4012 1
 4254  4011  4013 1
 4255  4014  4015 1
 4256  4014  4016 1
 4257  4017  4018 1
 4258  4017  4019 1
 4259  4020  4021 1
 4260  4020  4022 1
 4261  4023  4024 1
 4262  4023  4025 1
 4263  4026  4027 1
 4264  4026  4028 1
 4265  4029  4030 1
 4266  4029  4031 1
 4267  4032  4033 1
 4268  4032  4034 1
 4269  4035  4036 1
 4270  4035  4037 1
 4271  4038  4039 1
 4272  4038  4040 1
 4273  4041  4042 1
 4274  4041  4043 1
 4275  4044  4045 1
 4276  4044  4046 1
 4277  4047  4048 1
 4278  4047  4049 1
 4279  4050  4051 1
 4280  4050  4052 1
 4281  4053  4054 1
 4282  4053  4055 1
 4283  4056  4057 1
 4284  4056  4058 1
 4285  4059  4060 1
 4286  4059  4061 1
 4287  4062  4063 1
 4288  4062  4064 1
 4289  4065  4066 1
 4290  4065  4067 1
 4291  4068  4069 1
 4292  4068  4070 1
 4293  4071  4072 1
 4294  4071  4073 1
 4295  4074  4075 1
 4296  4074  4076 1
 4297  4077  4078 1
 4298  4077  4079 1
 4299  4080  4081 1
 4300  4080  4082 1
 4301  4083  4084 1
 4302  4083  4085 1
 4303  4086  4087 1
 4304  4086  4088 1
 4305  4089  4090 1
 4306  4089  4091 1
 4307  4092  4093 1
 4308  4092  4094 1
 4309  4095  4096 1
 4310  4095  4097 1
 4311  4098  4099 1
 4312  4098  4100 1
 4313  4101  4102 1
 4314  4101  4103 1
 4315  4104  4105 1
 4316  4104  4106 1
 4317  4107  4108 1
 4318  4107  4109 1
 4319  4110  4111 1
 4320  4110  4112 1
@<TRIPOS>SUBSTRUCTURE
      1  RES              1 ****               0 ****  ****

