data_matlab_gen

_audit_creation_date     28-Oct-2019 22:54:19
_audit_creation_method   generated by the Matlab ATOM scripts

_cell_length_a            30.9600
_cell_length_b            35.8633
_cell_length_c            41.5800
_cell_angle_alpha         90.0000
_cell_angle_beta          90.0000
_cell_angle_gamma         90.0000
_cell_volume             46167.4286

_symmetry_cell_setting          triclinic
_symmetry_space_group_name_Hall 'P 1'
_symmetry_space_group_name_H-M  'P 1'
_symmetry_Int_Tables_number     1

_symmetry_equiv_pos_as_xyz 'x,y,z'

loop_
loop_
_atom_site_label
_atom_site_type_symbol
_atom_site_fract_x
_atom_site_fract_y
_atom_site_fract_z
_atom_site_charge
Al         Al         0.0825521     0.0542640     0.0000000     1.57500
Si         Si         0.1070999     0.0057465     0.0644541     2.10000
Si         Si         0.1103299     0.0880033     0.0646946     2.10000
Op         O          0.1009629     0.0104867     0.0254930    -1.05000
Op         O          0.1151748     0.0871668     0.0254930    -1.05000
Ohmg       O          0.0311955     0.0584466     0.0238095    -1.08090
Ob         O          0.9885598     0.1025028     0.0793651    -1.05000
Ob         O          0.1006399     0.0461778     0.0793651    -1.05000
Ob         O          0.0725392     0.1164446     0.0735931    -1.05000
H          H          0.0182756     0.0378127     0.0343915     0.42500
Al         Al         0.0005107     0.1791828     0.0000000     1.57500
Si         Si         0.0250585     0.1309441     0.0644541     2.10000
Si         Si         0.0282885     0.2129221     0.0646946     2.10000
Omg        O          0.0189216     0.1356843     0.0254930    -1.18080
Op         O          0.0334565     0.2120855     0.0254930    -1.05000
Ohmg       O          0.1158208     0.1833654     0.0238095    -1.08090
Ob         O          0.0731852     0.2274216     0.0793651    -1.05000
Ob         O          0.0185986     0.1710966     0.0793651    -1.05000
Ob         O          0.9908208     0.2413634     0.0735931    -1.05000
H          H          0.1029009     0.1627315     0.0343915     0.42500
Al         Al         0.0844901     0.2207295     0.0000000     1.57500
Si         Si         0.0573583     0.0191306     0.9355459     2.10000
Si         Si         0.0567123     0.1869903     0.9353054     2.10000
Op         O          0.0634952     0.0143904     0.9745070    -1.05000
Op         O          0.0518673     0.1878268     0.9745070    -1.05000
Ohmg       O          0.1358467     0.2165469     0.9761905    -1.08090
Ob         O          0.1784823     0.1724907     0.9206349    -1.05000
Ob         O          0.0667252     0.2288157     0.9208754    -1.05000
Ob         O          0.0945030     0.1585489     0.9266474    -1.05000
H          H          0.1487666     0.2371808     0.9658490     0.42500
Mgo        Mg         0.9998647     0.0958107     0.0000000     1.36000
Si         Si         0.1419836     0.1440494     0.9355459     2.10000
Si         Si         0.1387536     0.0620715     0.9353054     2.10000
Omg        O          0.1484436     0.1393092     0.9745070    -1.18080
Op         O          0.1339087     0.0629080     0.9745070    -1.05000
Ohmg       O          0.0512213     0.0916281     0.9761905    -1.08090
Ob         O          0.0938570     0.0475720     0.9206349    -1.05000
Ob         O          0.1484436     0.1038970     0.9208754    -1.05000
Ob         O          0.1762213     0.0336301     0.9266474    -1.05000
H          H          0.0641412     0.1122620     0.9658490     0.42500
Al         Al         0.2492187     0.0542640     0.0000000     1.57500
Si         Si         0.2737666     0.0057465     0.0644541     2.10000
Si         Si         0.2769965     0.0880033     0.0646946     2.10000
Omg        O          0.2676296     0.0104867     0.0254930    -1.18080
Op         O          0.2818415     0.0871668     0.0254930    -1.05000
Oh         O          0.1978622     0.0584466     0.0238095    -0.95000
Ob         O          0.1552265     0.1025028     0.0793651    -1.05000
Ob         O          0.2673066     0.0461778     0.0793651    -1.05000
Ob         O          0.2392058     0.1164446     0.0735931    -1.05000
H          H          0.1849423     0.0378127     0.0343915     0.42500
Mgo        Mg         0.1671774     0.1791828     0.0000000     1.36000
Si         Si         0.1917252     0.1309441     0.0644541     2.10000
Si         Si         0.1949552     0.2129221     0.0646946     2.10000
Omg        O          0.1855883     0.1356843     0.0254930    -1.18080
Omg        O          0.2001231     0.2120855     0.0254930    -1.18080
Oh         O          0.2824875     0.1833654     0.0238095    -0.95000
Ob         O          0.2398518     0.2274216     0.0793651    -1.05000
Ob         O          0.1852653     0.1710966     0.0793651    -1.05000
Ob         O          0.1574875     0.2413634     0.0735931    -1.05000
H          H          0.2695676     0.1627315     0.0343915     0.42500
Al         Al         0.2511567     0.2207295     0.0000000     1.57500
Si         Si         0.2240250     0.0191306     0.9355459     2.10000
Si         Si         0.2233790     0.1869903     0.9353054     2.10000
Omg        O          0.2301619     0.0143904     0.9745070    -1.18080
Omg        O          0.2185340     0.1878268     0.9745070    -1.18080
Oh         O          0.3025133     0.2165469     0.9761905    -0.95000
Ob         O          0.3451490     0.1724907     0.9206349    -1.05000
Ob         O          0.2333919     0.2288157     0.9208754    -1.05000
Ob         O          0.2611697     0.1585489     0.9266474    -1.05000
H          H          0.3154332     0.2371808     0.9658490     0.42500
Al         Al         0.1665314     0.0958107     0.0000000     1.57500
Si         Si         0.3086503     0.1440494     0.9355459     2.10000
Si         Si         0.3054203     0.0620715     0.9353054     2.10000
Op         O          0.3151102     0.1393092     0.9745070    -1.05000
Op         O          0.3005753     0.0629080     0.9745070    -1.05000
Oh         O          0.2178880     0.0916281     0.9761905    -0.95000
Ob         O          0.2605237     0.0475720     0.9206349    -1.05000
Ob         O          0.3151102     0.1038970     0.9208754    -1.05000
Ob         O          0.3428880     0.0336301     0.9266474    -1.05000
H          H          0.2308079     0.1122620     0.9658490     0.42500
Al         Al         0.4158854     0.0542640     0.0000000     1.57500
Si         Si         0.4404332     0.0057465     0.0644541     2.10000
Si         Si         0.4436632     0.0880033     0.0646946     2.10000
Op         O          0.4342963     0.0104867     0.0254930    -1.05000
Op         O          0.4485082     0.0871668     0.0254930    -1.05000
Oh         O          0.3645288     0.0584466     0.0238095    -0.95000
Ob         O          0.3218932     0.1025028     0.0793651    -1.05000
Ob         O          0.4339733     0.0461778     0.0793651    -1.05000
Ob         O          0.4058725     0.1164446     0.0735931    -1.05000
H          H          0.3516089     0.0378127     0.0343915     0.42500
Al         Al         0.3338441     0.1791828     0.0000000     1.57500
Si         Si         0.3583919     0.1309441     0.0644541     2.10000
Si         Si         0.3616219     0.2129221     0.0646946     2.10000
Op         O          0.3522549     0.1356843     0.0254930    -1.05000
Op         O          0.3667898     0.2120855     0.0254930    -1.05000
Oh         O          0.4491542     0.1833654     0.0238095    -0.95000
Ob         O          0.4065185     0.2274216     0.0793651    -1.05000
Ob         O          0.3519319     0.1710966     0.0793651    -1.05000
Ob         O          0.3241542     0.2413634     0.0735931    -1.05000
H          H          0.4362343     0.1627315     0.0343915     0.42500
Al         Al         0.4178234     0.2207295     0.0000000     1.57500
Si         Si         0.3906916     0.0191306     0.9355459     2.10000
Si         Si         0.3900456     0.1869903     0.9353054     2.10000
Op         O          0.3968286     0.0143904     0.9745070    -1.05000
Op         O          0.3852007     0.1878268     0.9745070    -1.05000
Oh         O          0.4691800     0.2165469     0.9761905    -0.95000
Ob         O          0.5118156     0.1724907     0.9206349    -1.05000
Ob         O          0.4000585     0.2288157     0.9208754    -1.05000
Ob         O          0.4278363     0.1585489     0.9266474    -1.05000
H          H          0.4820999     0.2371808     0.9658490     0.42500
Al         Al         0.3331981     0.0958107     0.0000000     1.57500
Si         Si         0.4753169     0.1440494     0.9355459     2.10000
Si         Si         0.4720870     0.0620715     0.9353054     2.10000
Op         O          0.4817769     0.1393092     0.9745070    -1.05000
Op         O          0.4672420     0.0629080     0.9745070    -1.05000
Oh         O          0.3845547     0.0916281     0.9761905    -0.95000
Ob         O          0.4271903     0.0475720     0.9206349    -1.05000
Ob         O          0.4817769     0.1038970     0.9208754    -1.05000
Ob         O          0.5095547     0.0336301     0.9266474    -1.05000
H          H          0.3974746     0.1122620     0.9658490     0.42500
Mgo        Mg         0.5825521     0.0542640     0.0000000     1.36000
Si         Si         0.6070999     0.0057465     0.0644541     2.10000
Si         Si         0.6103299     0.0880033     0.0646946     2.10000
Omg        O          0.6009629     0.0104867     0.0254930    -1.18080
Omg        O          0.6151748     0.0871668     0.0254930    -1.18080
Ohmg       O          0.5311955     0.0584466     0.0238095    -1.08090
Ob         O          0.4885598     0.1025028     0.0793651    -1.05000
Ob         O          0.6006399     0.0461778     0.0793651    -1.05000
Ob         O          0.5725392     0.1164446     0.0735931    -1.05000
H          H          0.5182756     0.0378127     0.0343915     0.42500
Al         Al         0.5005107     0.1791828     0.0000000     1.57500
Si         Si         0.5250585     0.1309441     0.0644541     2.10000
Si         Si         0.5282885     0.2129221     0.0646946     2.10000
Op         O          0.5189216     0.1356843     0.0254930    -1.05000
Omg        O          0.5334565     0.2120855     0.0254930    -1.18080
Ohmg       O          0.6158208     0.1833654     0.0238095    -1.08090
Ob         O          0.5731852     0.2274216     0.0793651    -1.05000
Ob         O          0.5185986     0.1710966     0.0793651    -1.05000
Ob         O          0.4908208     0.2413634     0.0735931    -1.05000
H          H          0.6029009     0.1627315     0.0343915     0.42500
Mgo        Mg         0.5844901     0.2207295     0.0000000     1.36000
Si         Si         0.5573583     0.0191306     0.9355459     2.10000
Si         Si         0.5567123     0.1869903     0.9353054     2.10000
Omg        O          0.5634952     0.0143904     0.9745070    -1.18080
Omg        O          0.5518673     0.1878268     0.9745070    -1.18080
Ohmg       O          0.6358467     0.2165469     0.9761905    -1.08090
Ob         O          0.6784823     0.1724907     0.9206349    -1.05000
Ob         O          0.5667252     0.2288157     0.9208754    -1.05000
Ob         O          0.5945030     0.1585489     0.9266474    -1.05000
H          H          0.6487666     0.2371808     0.9658490     0.42500
Al         Al         0.4998647     0.0958107     0.0000000     1.57500
Si         Si         0.6419836     0.1440494     0.9355459     2.10000
Si         Si         0.6387536     0.0620715     0.9353054     2.10000
Op         O          0.6484436     0.1393092     0.9745070    -1.05000
Omg        O          0.6339087     0.0629080     0.9745070    -1.18080
Ohmg       O          0.5512213     0.0916281     0.9761905    -1.08090
Ob         O          0.5938570     0.0475720     0.9206349    -1.05000
Ob         O          0.6484436     0.1038970     0.9208754    -1.05000
Ob         O          0.6762213     0.0336301     0.9266474    -1.05000
H          H          0.5641412     0.1122620     0.9658490     0.42500
Al         Al         0.7492188     0.0542640     0.0000000     1.57500
Si         Si         0.7737666     0.0057465     0.0644541     2.10000
Si         Si         0.7769965     0.0880033     0.0646946     2.10000
Op         O          0.7676296     0.0104867     0.0254930    -1.05000
Op         O          0.7818415     0.0871668     0.0254930    -1.05000
Oh         O          0.6978622     0.0584466     0.0238095    -0.95000
Ob         O          0.6552265     0.1025028     0.0793651    -1.05000
Ob         O          0.7673066     0.0461778     0.0793651    -1.05000
Ob         O          0.7392058     0.1164446     0.0735931    -1.05000
H          H          0.6849423     0.0378127     0.0343915     0.42500
Al         Al         0.6671774     0.1791828     0.0000000     1.57500
Si         Si         0.6917252     0.1309441     0.0644541     2.10000
Si         Si         0.6949552     0.2129221     0.0646946     2.10000
Op         O          0.6855883     0.1356843     0.0254930    -1.05000
Op         O          0.7001231     0.2120855     0.0254930    -1.05000
Oh         O          0.7824875     0.1833654     0.0238095    -0.95000
Ob         O          0.7398518     0.2274216     0.0793651    -1.05000
Ob         O          0.6852653     0.1710966     0.0793651    -1.05000
Ob         O          0.6574875     0.2413634     0.0735931    -1.05000
H          H          0.7695676     0.1627315     0.0343915     0.42500
Al         Al         0.7511567     0.2207295     0.0000000     1.57500
Si         Si         0.7240250     0.0191306     0.9355459     2.10000
Si         Si         0.7233790     0.1869903     0.9353054     2.10000
Op         O          0.7301619     0.0143904     0.9745070    -1.05000
Op         O          0.7185340     0.1878268     0.9745070    -1.05000
Oh         O          0.8025133     0.2165469     0.9761905    -0.95000
Ob         O          0.8451490     0.1724907     0.9206349    -1.05000
Ob         O          0.7333919     0.2288157     0.9208754    -1.05000
Ob         O          0.7611697     0.1585489     0.9266474    -1.05000
H          H          0.8154332     0.2371808     0.9658490     0.42500
Al         Al         0.6665314     0.0958107     0.0000000     1.57500
Si         Si         0.8086503     0.1440494     0.9355459     2.10000
Si         Si         0.8054203     0.0620715     0.9353054     2.10000
Op         O          0.8151102     0.1393092     0.9745070    -1.05000
Op         O          0.8005753     0.0629080     0.9745070    -1.05000
Oh         O          0.7178880     0.0916281     0.9761905    -0.95000
Ob         O          0.7605237     0.0475720     0.9206349    -1.05000
Ob         O          0.8151102     0.1038970     0.9208754    -1.05000
Ob         O          0.8428880     0.0336301     0.9266474    -1.05000
H          H          0.7308079     0.1122620     0.9658490     0.42500
Al         Al         0.9158854     0.0542640     0.0000000     1.57500
Si         Si         0.9404332     0.0057465     0.0644541     2.10000
Si         Si         0.9436632     0.0880033     0.0646946     2.10000
Op         O          0.9342963     0.0104867     0.0254930    -1.05000
Omg        O          0.9485082     0.0871668     0.0254930    -1.18080
Oh         O          0.8645288     0.0584466     0.0238095    -0.95000
Ob         O          0.8218932     0.1025028     0.0793651    -1.05000
Ob         O          0.9339733     0.0461778     0.0793651    -1.05000
Ob         O          0.9058725     0.1164446     0.0735931    -1.05000
H          H          0.8516089     0.0378127     0.0343915     0.42500
Al         Al         0.8338441     0.1791828     0.0000000     1.57500
Si         Si         0.8583919     0.1309441     0.0644541     2.10000
Si         Si         0.8616219     0.2129221     0.0646946     2.10000
Op         O          0.8522549     0.1356843     0.0254930    -1.05000
Op         O          0.8667898     0.2120855     0.0254930    -1.05000
Oh         O          0.9491542     0.1833654     0.0238095    -0.95000
Ob         O          0.9065185     0.2274216     0.0793651    -1.05000
Ob         O          0.8519319     0.1710966     0.0793651    -1.05000
Ob         O          0.8241542     0.2413634     0.0735931    -1.05000
H          H          0.9362343     0.1627315     0.0343915     0.42500
Al         Al         0.9178234     0.2207295     0.0000000     1.57500
Si         Si         0.8906916     0.0191306     0.9355459     2.10000
Si         Si         0.8900456     0.1869903     0.9353054     2.10000
Op         O          0.8968286     0.0143904     0.9745070    -1.05000
Op         O          0.8852007     0.1878268     0.9745070    -1.05000
Oh         O          0.9691800     0.2165469     0.9761905    -0.95000
Ob         O          0.0118156     0.1724907     0.9206349    -1.05000
Ob         O          0.9000585     0.2288157     0.9208754    -1.05000
Ob         O          0.9278363     0.1585489     0.9266474    -1.05000
H          H          0.9820999     0.2371808     0.9658490     0.42500
Al         Al         0.8331981     0.0958107     0.0000000     1.57500
Si         Si         0.9753169     0.1440494     0.9355459     2.10000
Si         Si         0.9720870     0.0620715     0.9353054     2.10000
Omg        O          0.9817769     0.1393092     0.9745070    -1.18080
Omg        O          0.9672420     0.0629080     0.9745070    -1.18080
Oh         O          0.8845547     0.0916281     0.9761905    -0.95000
Ob         O          0.9271903     0.0475720     0.9206349    -1.05000
Ob         O          0.9817769     0.1038970     0.9208754    -1.05000
Ob         O          0.0095547     0.0336301     0.9266474    -1.05000
H          H          0.8974746     0.1122620     0.9658490     0.42500
Al         Al         0.0851361     0.3043805     0.0000000     1.57500
Si         Si         0.1096839     0.2558629     0.0644541     2.10000
Si         Si         0.1129138     0.3381197     0.0646946     2.10000
Op         O          0.1035469     0.2606031     0.0254930    -1.05000
Op         O          0.1180818     0.3370043     0.0254930    -1.05000
Oh         O          0.0337795     0.3085630     0.0238095    -0.95000
Ob         O          0.9911438     0.3526192     0.0793651    -1.05000
Ob         O          0.1032239     0.2962942     0.0793651    -1.05000
Ob         O          0.0754461     0.3662822     0.0735931    -1.05000
H          H          0.0208596     0.2876503     0.0343915     0.42500
Al         Al         0.0034177     0.4292992     0.0000000     1.57500
Si         Si         0.0276425     0.3807817     0.0644541     2.10000
Si         Si         0.0311955     0.4630385     0.0646946     2.10000
Op         O          0.0215056     0.3855219     0.0254930    -1.05000
Op         O          0.0360405     0.4622020     0.0254930    -1.05000
Oh         O          0.1187278     0.4334818     0.0238095    -0.95000
Ob         O          0.0760921     0.4775380     0.0793651    -1.05000
Ob         O          0.0211826     0.4212130     0.0793651    -1.05000
Ob         O          0.9934048     0.4914798     0.0735931    -1.05000
H          H          0.1058079     0.4125690     0.0343915     0.42500
Al         Al         0.0873970     0.4708459     0.0000000     1.57500
Si         Si         0.0599423     0.2692470     0.9355459     2.10000
Si         Si         0.0596193     0.4371067     0.9353054     2.10000
Op         O          0.0664022     0.2645068     0.9745070    -1.05000
Op         O          0.0544513     0.4379432     0.9745070    -1.05000
Oh         O          0.1387536     0.4663845     0.9761905    -0.95000
Ob         O          0.1813893     0.4226072     0.9206349    -1.05000
Ob         O          0.0693092     0.4789322     0.9208754    -1.05000
Ob         O          0.0970870     0.4086653     0.9266474    -1.05000
H          H          0.1516735     0.4872973     0.9658490     0.42500
Al         Al         0.0024487     0.3456483     0.0000000     1.57500
Si         Si         0.1448906     0.3941658     0.9355459     2.10000
Si         Si         0.1413376     0.3119090     0.9353054     2.10000
Op         O          0.1510275     0.3894256     0.9745070    -1.05000
Op         O          0.1364927     0.3127456     0.9745070    -1.05000
Oh         O          0.0538053     0.3414657     0.9761905    -0.95000
Ob         O          0.0964410     0.2974095     0.9206349    -1.05000
Ob         O          0.1513505     0.3537345     0.9208754    -1.05000
Ob         O          0.1791283     0.2834677     0.9266474    -1.05000
H          H          0.0667252     0.3623785     0.9658490     0.42500
Al         Al         0.2518027     0.3043805     0.0000000     1.57500
Si         Si         0.2763505     0.2558629     0.0644541     2.10000
Si         Si         0.2795805     0.3381197     0.0646946     2.10000
Op         O          0.2702136     0.2606031     0.0254930    -1.05000
Op         O          0.2847485     0.3370043     0.0254930    -1.05000
Oh         O          0.2004461     0.3085630     0.0238095    -0.95000
Ob         O          0.1578105     0.3526192     0.0793651    -1.05000
Ob         O          0.2698906     0.2962942     0.0793651    -1.05000
Ob         O          0.2421128     0.3662822     0.0735931    -1.05000
H          H          0.1875262     0.2876503     0.0343915     0.42500
Al         Al         0.1700844     0.4292992     0.0000000     1.57500
Si         Si         0.1943092     0.3807817     0.0644541     2.10000
Si         Si         0.1978622     0.4630385     0.0646946     2.10000
Op         O          0.1881722     0.3855219     0.0254930    -1.05000
Omg        O          0.2027071     0.4622020     0.0254930    -1.18080
Ohmg       O          0.2853945     0.4334818     0.0238095    -1.08090
Ob         O          0.2427588     0.4775380     0.0793651    -1.05000
Ob         O          0.1878492     0.4212130     0.0793651    -1.05000
Ob         O          0.1600715     0.4914798     0.0735931    -1.05000
H          H          0.2724746     0.4125690     0.0343915     0.42500
Mgo        Mg         0.2540637     0.4708459     0.0000000     1.36000
Si         Si         0.2266089     0.2692470     0.9355459     2.10000
Si         Si         0.2262859     0.4371067     0.9353054     2.10000
Op         O          0.2330689     0.2645068     0.9745070    -1.05000
Omg        O          0.2211180     0.4379432     0.9745070    -1.18080
Ohmg       O          0.3054203     0.4663845     0.9761905    -1.08090
Ob         O          0.3480560     0.4226072     0.9206349    -1.05000
Ob         O          0.2359759     0.4789322     0.9208754    -1.05000
Ob         O          0.2637536     0.4086653     0.9266474    -1.05000
H          H          0.3183402     0.4872973     0.9658490     0.42500
Al         Al         0.1691154     0.3456483     0.0000000     1.57500
Si         Si         0.3115573     0.3941658     0.9355459     2.10000
Si         Si         0.3080043     0.3119090     0.9353054     2.10000
Op         O          0.3176942     0.3894256     0.9745070    -1.05000
Op         O          0.3031593     0.3127456     0.9745070    -1.05000
Oh         O          0.2204720     0.3414657     0.9761905    -0.95000
Ob         O          0.2631076     0.2974095     0.9206349    -1.05000
Ob         O          0.3180172     0.3537345     0.9208754    -1.05000
Ob         O          0.3457950     0.2834677     0.9266474    -1.05000
H          H          0.2333919     0.3623785     0.9658490     0.42500
Mgo        Mg         0.4184694     0.3043805     0.0000000     1.36000
Si         Si         0.4430172     0.2558629     0.0644541     2.10000
Si         Si         0.4462472     0.3381197     0.0646946     2.10000
Omg        O          0.4368802     0.2606031     0.0254930    -1.18080
Omg        O          0.4514151     0.3370043     0.0254930    -1.18080
Ohmg       O          0.3671128     0.3085630     0.0238095    -1.08090
Ob         O          0.3244771     0.3526192     0.0793651    -1.05000
Ob         O          0.4365573     0.2962942     0.0793651    -1.05000
Ob         O          0.4087795     0.3662822     0.0735931    -1.05000
H          H          0.3541929     0.2876503     0.0343915     0.42500
Al         Al         0.3367510     0.4292992     0.0000000     1.57500
Si         Si         0.3609759     0.3807817     0.0644541     2.10000
Si         Si         0.3645288     0.4630385     0.0646946     2.10000
Op         O          0.3548389     0.3855219     0.0254930    -1.05000
Op         O          0.3693738     0.4622020     0.0254930    -1.05000
Oh         O          0.4520611     0.4334818     0.0238095    -0.95000
Ob         O          0.4094255     0.4775380     0.0793651    -1.05000
Ob         O          0.3545159     0.4212130     0.0793651    -1.05000
Ob         O          0.3267381     0.4914798     0.0735931    -1.05000
H          H          0.4391412     0.4125690     0.0343915     0.42500
Al         Al         0.4207304     0.4708459     0.0000000     1.57500
Si         Si         0.3932756     0.2692470     0.9355459     2.10000
Si         Si         0.3929526     0.4371067     0.9353054     2.10000
Omg        O          0.3997355     0.2645068     0.9745070    -1.18080
Op         O          0.3877846     0.4379432     0.9745070    -1.05000
Oh         O          0.4720870     0.4663845     0.9761905    -0.95000
Ob         O          0.5147226     0.4226072     0.9206349    -1.05000
Ob         O          0.4026425     0.4789322     0.9208754    -1.05000
Ob         O          0.4304203     0.4086653     0.9266474    -1.05000
H          H          0.4850069     0.4872973     0.9658490     0.42500
Al         Al         0.3357821     0.3456483     0.0000000     1.57500
Si         Si         0.4782239     0.3941658     0.9355459     2.10000
Si         Si         0.4746709     0.3119090     0.9353054     2.10000
Op         O          0.4843609     0.3894256     0.9745070    -1.05000
Omg        O          0.4698260     0.3127456     0.9745070    -1.18080
Ohmg       O          0.3871386     0.3414657     0.9761905    -1.08090
Ob         O          0.4297743     0.2974095     0.9206349    -1.05000
Ob         O          0.4846839     0.3537345     0.9208754    -1.05000
Ob         O          0.5124616     0.2834677     0.9266474    -1.05000
H          H          0.4000585     0.3623785     0.9658490     0.42500
Al         Al         0.5851361     0.3043805     0.0000000     1.57500
Si         Si         0.6096839     0.2558629     0.0644541     2.10000
Si         Si         0.6129138     0.3381197     0.0646946     2.10000
Omg        O          0.6035469     0.2606031     0.0254930    -1.18080
Op         O          0.6180818     0.3370043     0.0254930    -1.05000
Oh         O          0.5337795     0.3085630     0.0238095    -0.95000
Ob         O          0.4911438     0.3526192     0.0793651    -1.05000
Ob         O          0.6032239     0.2962942     0.0793651    -1.05000
Ob         O          0.5754461     0.3662822     0.0735931    -1.05000
H          H          0.5208596     0.2876503     0.0343915     0.42500
Al         Al         0.5034177     0.4292992     0.0000000     1.57500
Si         Si         0.5276425     0.3807817     0.0644541     2.10000
Si         Si         0.5311955     0.4630385     0.0646946     2.10000
Op         O          0.5215056     0.3855219     0.0254930    -1.05000
Op         O          0.5360405     0.4622020     0.0254930    -1.05000
Oh         O          0.6187278     0.4334818     0.0238095    -0.95000
Ob         O          0.5760921     0.4775380     0.0793651    -1.05000
Ob         O          0.5211826     0.4212130     0.0793651    -1.05000
Ob         O          0.4934048     0.4914798     0.0735931    -1.05000
H          H          0.6058079     0.4125690     0.0343915     0.42500
Al         Al         0.5873970     0.4708459     0.0000000     1.57500
Si         Si         0.5599423     0.2692470     0.9355459     2.10000
Si         Si         0.5596193     0.4371067     0.9353054     2.10000
Omg        O          0.5664022     0.2645068     0.9745070    -1.18080
Op         O          0.5544513     0.4379432     0.9745070    -1.05000
Oh         O          0.6387536     0.4663845     0.9761905    -0.95000
Ob         O          0.6813893     0.4226072     0.9206349    -1.05000
Ob         O          0.5693092     0.4789322     0.9208754    -1.05000
Ob         O          0.5970870     0.4086653     0.9266474    -1.05000
H          H          0.6516735     0.4872973     0.9658490     0.42500
Al         Al         0.5024487     0.3456483     0.0000000     1.57500
Si         Si         0.6448906     0.3941658     0.9355459     2.10000
Si         Si         0.6413376     0.3119090     0.9353054     2.10000
Op         O          0.6510275     0.3894256     0.9745070    -1.05000
Op         O          0.6364927     0.3127456     0.9745070    -1.05000
Oh         O          0.5538053     0.3414657     0.9761905    -0.95000
Ob         O          0.5964410     0.2974095     0.9206349    -1.05000
Ob         O          0.6513505     0.3537345     0.9208754    -1.05000
Ob         O          0.6791283     0.2834677     0.9266474    -1.05000
H          H          0.5667252     0.3623785     0.9658490     0.42500
Al         Al         0.7518027     0.3043805     0.0000000     1.57500
Si         Si         0.7763505     0.2558629     0.0644541     2.10000
Si         Si         0.7795805     0.3381197     0.0646946     2.10000
Op         O          0.7702136     0.2606031     0.0254930    -1.05000
Op         O          0.7847485     0.3370043     0.0254930    -1.05000
Oh         O          0.7004461     0.3085630     0.0238095    -0.95000
Ob         O          0.6578105     0.3526192     0.0793651    -1.05000
Ob         O          0.7698906     0.2962942     0.0793651    -1.05000
Ob         O          0.7421128     0.3662822     0.0735931    -1.05000
H          H          0.6875262     0.2876503     0.0343915     0.42500
Al         Al         0.6700844     0.4292992     0.0000000     1.57500
Si         Si         0.6943092     0.3807817     0.0644541     2.10000
Si         Si         0.6978622     0.4630385     0.0646946     2.10000
Op         O          0.6881722     0.3855219     0.0254930    -1.05000
Op         O          0.7027071     0.4622020     0.0254930    -1.05000
Oh         O          0.7853945     0.4334818     0.0238095    -0.95000
Ob         O          0.7427588     0.4775380     0.0793651    -1.05000
Ob         O          0.6878492     0.4212130     0.0793651    -1.05000
Ob         O          0.6600715     0.4914798     0.0735931    -1.05000
H          H          0.7724746     0.4125690     0.0343915     0.42500
Al         Al         0.7540637     0.4708459     0.0000000     1.57500
Si         Si         0.7266089     0.2692470     0.9355459     2.10000
Si         Si         0.7262859     0.4371067     0.9353054     2.10000
Op         O          0.7330689     0.2645068     0.9745070    -1.05000
Op         O          0.7211180     0.4379432     0.9745070    -1.05000
Oh         O          0.8054203     0.4663845     0.9761905    -0.95000
Ob         O          0.8480560     0.4226072     0.9206349    -1.05000
Ob         O          0.7359759     0.4789322     0.9208754    -1.05000
Ob         O          0.7637536     0.4086653     0.9266474    -1.05000
H          H          0.8183402     0.4872973     0.9658490     0.42500
Al         Al         0.6691154     0.3456483     0.0000000     1.57500
Si         Si         0.8115573     0.3941658     0.9355459     2.10000
Si         Si         0.8080043     0.3119090     0.9353054     2.10000
Op         O          0.8176942     0.3894256     0.9745070    -1.05000
Op         O          0.8031593     0.3127456     0.9745070    -1.05000
Oh         O          0.7204720     0.3414657     0.9761905    -0.95000
Ob         O          0.7631076     0.2974095     0.9206349    -1.05000
Ob         O          0.8180172     0.3537345     0.9208754    -1.05000
Ob         O          0.8457950     0.2834677     0.9266474    -1.05000
H          H          0.7333919     0.3623785     0.9658490     0.42500
Mgo        Mg         0.9184694     0.3043805     0.0000000     1.36000
Si         Si         0.9430172     0.2558629     0.0644541     2.10000
Si         Si         0.9462472     0.3381197     0.0646946     2.10000
Omg        O          0.9368802     0.2606031     0.0254930    -1.18080
Omg        O          0.9514151     0.3370043     0.0254930    -1.18080
Ohmg       O          0.8671128     0.3085630     0.0238095    -1.08090
Ob         O          0.8244771     0.3526192     0.0793651    -1.05000
Ob         O          0.9365573     0.2962942     0.0793651    -1.05000
Ob         O          0.9087795     0.3662822     0.0735931    -1.05000
H          H          0.8541929     0.2876503     0.0343915     0.42500
Al         Al         0.8367510     0.4292992     0.0000000     1.57500
Si         Si         0.8609759     0.3807817     0.0644541     2.10000
Si         Si         0.8645288     0.4630385     0.0646946     2.10000
Op         O          0.8548389     0.3855219     0.0254930    -1.05000
Omg        O          0.8693738     0.4622020     0.0254930    -1.18080
Ohmg       O          0.9520611     0.4334818     0.0238095    -1.08090
Ob         O          0.9094255     0.4775380     0.0793651    -1.05000
Ob         O          0.8545159     0.4212130     0.0793651    -1.05000
Ob         O          0.8267381     0.4914798     0.0735931    -1.05000
H          H          0.9391412     0.4125690     0.0343915     0.42500
Mgo        Mg         0.9207304     0.4708459     0.0000000     1.36000
Si         Si         0.8932756     0.2692470     0.9355459     2.10000
Si         Si         0.8929526     0.4371067     0.9353054     2.10000
Omg        O          0.8997355     0.2645068     0.9745070    -1.18080
Omg        O          0.8877846     0.4379432     0.9745070    -1.18080
Ohmg       O          0.9720870     0.4663845     0.9761905    -1.08090
Ob         O          0.0147226     0.4226072     0.9206349    -1.05000
Ob         O          0.9026425     0.4789322     0.9208754    -1.05000
Ob         O          0.9304203     0.4086653     0.9266474    -1.05000
H          H          0.9850069     0.4872973     0.9658490     0.42500
Al         Al         0.8357821     0.3456483     0.0000000     1.57500
Si         Si         0.9782239     0.3941658     0.9355459     2.10000
Si         Si         0.9746709     0.3119090     0.9353054     2.10000
Op         O          0.9843609     0.3894256     0.9745070    -1.05000
Omg        O          0.9698260     0.3127456     0.9745070    -1.18080
Ohmg       O          0.8871386     0.3414657     0.9761905    -1.08090
Ob         O          0.9297743     0.2974095     0.9206349    -1.05000
Ob         O          0.9846839     0.3537345     0.9208754    -1.05000
Ob         O          0.0124616     0.2834677     0.9266474    -1.05000
H          H          0.9000585     0.3623785     0.9658490     0.42500
Mgo        Mg         0.0880430     0.5542180     0.0000000     1.36000
Si         Si         0.1125908     0.5057005     0.0644541     2.10000
Si         Si         0.1158208     0.5879573     0.0646946     2.10000
Omg        O          0.1061309     0.5107195     0.0254930    -1.18080
Omg        O          0.1206658     0.5871207     0.0254930    -1.18080
Ohmg       O          0.0366865     0.5584006     0.0238095    -1.08090
Ob         O          0.9940508     0.6024568     0.0793651    -1.05000
Ob         O          0.1058079     0.5461318     0.0793651    -1.05000
Ob         O          0.0780301     0.6163986     0.0735931    -1.05000
H          H          0.0237666     0.5377667     0.0343915     0.42500
Al         Al         0.0060017     0.6791368     0.0000000     1.57500
Si         Si         0.0305495     0.6308981     0.0644541     2.10000
Si         Si         0.0337795     0.7131549     0.0646946     2.10000
Op         O          0.0244125     0.6356383     0.0254930    -1.05000
Op         O          0.0386244     0.7120395     0.0254930    -1.05000
Oh         O          0.1213118     0.6835982     0.0238095    -0.95000
Ob         O          0.0786761     0.7273755     0.0793651    -1.05000
Ob         O          0.0240896     0.6710506     0.0793651    -1.05000
Ob         O          0.9963118     0.7413174     0.0735931    -1.05000
H          H          0.1083919     0.6626855     0.0343915     0.42500
Al         Al         0.0899810     0.7206835     0.0000000     1.57500
Si         Si         0.0628492     0.5190846     0.9355459     2.10000
Si         Si         0.0622032     0.6869442     0.9353054     2.10000
Omg        O          0.0689862     0.5143444     0.9745070    -1.18080
Op         O          0.0573583     0.6877808     0.9745070    -1.05000
Oh         O          0.1413376     0.7165009     0.9761905    -0.95000
Ob         O          0.1839733     0.6724447     0.9206349    -1.05000
Ob         O          0.0718932     0.7287697     0.9208754    -1.05000
Ob         O          0.0996709     0.6585029     0.9266474    -1.05000
H          H          0.1542575     0.7374137     0.9658490     0.42500
Al         Al         0.0053557     0.5957647     0.0000000     1.57500
Si         Si         0.1474746     0.6442822     0.9355459     2.10000
Si         Si         0.1442446     0.5620255     0.9353054     2.10000
Op         O          0.1536115     0.6392632     0.9745070    -1.05000
Omg        O          0.1393996     0.5628620     0.9745070    -1.18080
Ohmg       O          0.0567123     0.5915821     0.9761905    -1.08090
Ob         O          0.0993479     0.5475260     0.9206349    -1.05000
Ob         O          0.1539345     0.6038509     0.9208754    -1.05000
Ob         O          0.1817123     0.5335841     0.9266474    -1.05000
H          H          0.0696322     0.6122160     0.9658490     0.42500
Al         Al         0.2547097     0.5542180     0.0000000     1.57500
Si         Si         0.2792575     0.5057005     0.0644541     2.10000
Si         Si         0.2824875     0.5879573     0.0646946     2.10000
Omg        O          0.2727976     0.5107195     0.0254930    -1.18080
Op         O          0.2873324     0.5871207     0.0254930    -1.05000
Oh         O          0.2033531     0.5584006     0.0238095    -0.95000
Ob         O          0.1607175     0.6024568     0.0793651    -1.05000
Ob         O          0.2724746     0.5461318     0.0793651    -1.05000
Ob         O          0.2446968     0.6163986     0.0735931    -1.05000
H          H          0.1904332     0.5377667     0.0343915     0.42500
Al         Al         0.1726684     0.6791368     0.0000000     1.57500
Si         Si         0.1972162     0.6308981     0.0644541     2.10000
Si         Si         0.2004461     0.7131549     0.0646946     2.10000
Op         O          0.1910792     0.6356383     0.0254930    -1.05000
Omg        O          0.2052911     0.7120395     0.0254930    -1.18080
Ohmg       O          0.2879784     0.6835982     0.0238095    -1.08090
Ob         O          0.2453428     0.7273755     0.0793651    -1.05000
Ob         O          0.1907562     0.6710506     0.0793651    -1.05000
Ob         O          0.1629784     0.7413174     0.0735931    -1.05000
H          H          0.2750585     0.6626855     0.0343915     0.42500
Mgo        Mg         0.2566477     0.7206835     0.0000000     1.36000
Si         Si         0.2295159     0.5190846     0.9355459     2.10000
Si         Si         0.2288699     0.6869442     0.9353054     2.10000
Omg        O          0.2356529     0.5143444     0.9745070    -1.18080
Omg        O          0.2240250     0.6877808     0.9745070    -1.18080
Ohmg       O          0.3080043     0.7165009     0.9761905    -1.08090
Ob         O          0.3506399     0.6724447     0.9206349    -1.05000
Ob         O          0.2385598     0.7287697     0.9208754    -1.05000
Ob         O          0.2663376     0.6585029     0.9266474    -1.05000
H          H          0.3209242     0.7374137     0.9658490     0.42500
Al         Al         0.1720224     0.5957647     0.0000000     1.57500
Si         Si         0.3141412     0.6442822     0.9355459     2.10000
Si         Si         0.3109113     0.5620255     0.9353054     2.10000
Op         O          0.3202782     0.6392632     0.9745070    -1.05000
Op         O          0.3060663     0.5628620     0.9745070    -1.05000
Oh         O          0.2233790     0.5915821     0.9761905    -0.95000
Ob         O          0.2660146     0.5475260     0.9206349    -1.05000
Ob         O          0.3206012     0.6038509     0.9208754    -1.05000
Ob         O          0.3483790     0.5335841     0.9266474    -1.05000
H          H          0.2362989     0.6122160     0.9658490     0.42500
Mgo        Mg         0.4213764     0.5542180     0.0000000     1.36000
Si         Si         0.4459242     0.5057005     0.0644541     2.10000
Si         Si         0.4491542     0.5879573     0.0646946     2.10000
Omg        O          0.4394642     0.5107195     0.0254930    -1.18080
Omg        O          0.4539991     0.5871207     0.0254930    -1.18080
Ohmg       O          0.3700198     0.5584006     0.0238095    -1.08090
Ob         O          0.3273841     0.6024568     0.0793651    -1.05000
Ob         O          0.4391412     0.5461318     0.0793651    -1.05000
Ob         O          0.4113635     0.6163986     0.0735931    -1.05000
H          H          0.3570999     0.5377667     0.0343915     0.42500
Al         Al         0.3393350     0.6791368     0.0000000     1.57500
Si         Si         0.3638828     0.6308981     0.0644541     2.10000
Si         Si         0.3671128     0.7131549     0.0646946     2.10000
Op         O          0.3577459     0.6356383     0.0254930    -1.05000
Op         O          0.3719578     0.7120395     0.0254930    -1.05000
Oh         O          0.4546451     0.6835982     0.0238095    -0.95000
Ob         O          0.4120094     0.7273755     0.0793651    -1.05000
Ob         O          0.3574229     0.6710506     0.0793651    -1.05000
Ob         O          0.3296451     0.7413174     0.0735931    -1.05000
H          H          0.4417252     0.6626855     0.0343915     0.42500
Al         Al         0.4233144     0.7206835     0.0000000     1.57500
Si         Si         0.3961826     0.5190846     0.9355459     2.10000
Si         Si         0.3955366     0.6869442     0.9353054     2.10000
Omg        O          0.4023195     0.5143444     0.9745070    -1.18080
Op         O          0.3906916     0.6877808     0.9745070    -1.05000
Oh         O          0.4746709     0.7165009     0.9761905    -0.95000
Ob         O          0.5173066     0.6724447     0.9206349    -1.05000
Ob         O          0.4052265     0.7287697     0.9208754    -1.05000
Ob         O          0.4330043     0.6585029     0.9266474    -1.05000
H          H          0.4875908     0.7374137     0.9658490     0.42500
Al         Al         0.3386890     0.5957647     0.0000000     1.57500
Si         Si         0.4808079     0.6442822     0.9355459     2.10000
Si         Si         0.4775779     0.5620255     0.9353054     2.10000
Op         O          0.4869448     0.6392632     0.9745070    -1.05000
Omg        O          0.4727330     0.5628620     0.9745070    -1.18080
Ohmg       O          0.3900456     0.5915821     0.9761905    -1.08090
Ob         O          0.4326813     0.5475260     0.9206349    -1.05000
Ob         O          0.4872678     0.6038509     0.9208754    -1.05000
Ob         O          0.5150456     0.5335841     0.9266474    -1.05000
H          H          0.4029655     0.6122160     0.9658490     0.42500
Al         Al         0.5880430     0.5542180     0.0000000     1.57500
Si         Si         0.6125908     0.5057005     0.0644541     2.10000
Si         Si         0.6158208     0.5879573     0.0646946     2.10000
Op         O          0.6061309     0.5107195     0.0254930    -1.05000
Op         O          0.6206658     0.5871207     0.0254930    -1.05000
Oh         O          0.5366865     0.5584006     0.0238095    -0.95000
Ob         O          0.4940508     0.6024568     0.0793651    -1.05000
Ob         O          0.6058079     0.5461318     0.0793651    -1.05000
Ob         O          0.5780301     0.6163986     0.0735931    -1.05000
H          H          0.5237666     0.5377667     0.0343915     0.42500
Al         Al         0.5060017     0.6791368     0.0000000     1.57500
Si         Si         0.5305495     0.6308981     0.0644541     2.10000
Si         Si         0.5337795     0.7131549     0.0646946     2.10000
Op         O          0.5244125     0.6356383     0.0254930    -1.05000
Op         O          0.5386244     0.7120395     0.0254930    -1.05000
Oh         O          0.6213118     0.6835982     0.0238095    -0.95000
Ob         O          0.5786761     0.7273755     0.0793651    -1.05000
Ob         O          0.5240896     0.6710506     0.0793651    -1.05000
Ob         O          0.4963118     0.7413174     0.0735931    -1.05000
H          H          0.6083919     0.6626855     0.0343915     0.42500
Al         Al         0.5899810     0.7206835     0.0000000     1.57500
Si         Si         0.5628492     0.5190846     0.9355459     2.10000
Si         Si         0.5622032     0.6869442     0.9353054     2.10000
Op         O          0.5689862     0.5143444     0.9745070    -1.05000
Op         O          0.5573583     0.6877808     0.9745070    -1.05000
Oh         O          0.6413376     0.7165009     0.9761905    -0.95000
Ob         O          0.6839733     0.6724447     0.9206349    -1.05000
Ob         O          0.5718932     0.7287697     0.9208754    -1.05000
Ob         O          0.5996709     0.6585029     0.9266474    -1.05000
H          H          0.6542575     0.7374137     0.9658490     0.42500
Al         Al         0.5053557     0.5957647     0.0000000     1.57500
Si         Si         0.6474746     0.6442822     0.9355459     2.10000
Si         Si         0.6442446     0.5620255     0.9353054     2.10000
Op         O          0.6536115     0.6392632     0.9745070    -1.05000
Op         O          0.6393996     0.5628620     0.9745070    -1.05000
Oh         O          0.5567123     0.5915821     0.9761905    -0.95000
Ob         O          0.5993479     0.5475260     0.9206349    -1.05000
Ob         O          0.6539345     0.6038509     0.9208754    -1.05000
Ob         O          0.6817123     0.5335841     0.9266474    -1.05000
H          H          0.5696322     0.6122160     0.9658490     0.42500
Al         Al         0.7547097     0.5542180     0.0000000     1.57500
Si         Si         0.7792575     0.5057005     0.0644541     2.10000
Si         Si         0.7824875     0.5879573     0.0646946     2.10000
Op         O          0.7727976     0.5107195     0.0254930    -1.05000
Op         O          0.7873324     0.5871207     0.0254930    -1.05000
Oh         O          0.7033531     0.5584006     0.0238095    -0.95000
Ob         O          0.6607175     0.6024568     0.0793651    -1.05000
Ob         O          0.7724746     0.5461318     0.0793651    -1.05000
Ob         O          0.7446968     0.6163986     0.0735931    -1.05000
H          H          0.6904332     0.5377667     0.0343915     0.42500
Al         Al         0.6726684     0.6791368     0.0000000     1.57500
Si         Si         0.6972162     0.6308981     0.0644541     2.10000
Si         Si         0.7004461     0.7131549     0.0646946     2.10000
Op         O          0.6910792     0.6356383     0.0254930    -1.05000
Op         O          0.7052911     0.7120395     0.0254930    -1.05000
Ohmg       O          0.7879784     0.6835982     0.0238095    -1.08090
Ob         O          0.7453428     0.7273755     0.0793651    -1.05000
Ob         O          0.6907562     0.6710506     0.0793651    -1.05000
Ob         O          0.6629784     0.7413174     0.0735931    -1.05000
H          H          0.7750585     0.6626855     0.0343915     0.42500
Al         Al         0.7566477     0.7206835     0.0000000     1.57500
Si         Si         0.7295159     0.5190846     0.9355459     2.10000
Si         Si         0.7288699     0.6869442     0.9353054     2.10000
Op         O          0.7356529     0.5143444     0.9745070    -1.05000
Op         O          0.7240250     0.6877808     0.9745070    -1.05000
Ohmg       O          0.8080043     0.7165009     0.9761905    -1.08090
Ob         O          0.8506399     0.6724447     0.9206349    -1.05000
Ob         O          0.7385598     0.7287697     0.9208754    -1.05000
Ob         O          0.7663376     0.6585029     0.9266474    -1.05000
H          H          0.8209242     0.7374137     0.9658490     0.42500
Al         Al         0.6720224     0.5957647     0.0000000     1.57500
Si         Si         0.8141412     0.6442822     0.9355459     2.10000
Si         Si         0.8109113     0.5620255     0.9353054     2.10000
Omg        O          0.8202782     0.6392632     0.9745070    -1.18080
Op         O          0.8060663     0.5628620     0.9745070    -1.05000
Oh         O          0.7233790     0.5915821     0.9761905    -0.95000
Ob         O          0.7660146     0.5475260     0.9206349    -1.05000
Ob         O          0.8206012     0.6038509     0.9208754    -1.05000
Ob         O          0.8483790     0.5335841     0.9266474    -1.05000
H          H          0.7362989     0.6122160     0.9658490     0.42500
Al         Al         0.9213764     0.5542180     0.0000000     1.57500
Si         Si         0.9459242     0.5057005     0.0644541     2.10000
Si         Si         0.9491542     0.5879573     0.0646946     2.10000
Omg        O          0.9394642     0.5107195     0.0254930    -1.18080
Op         O          0.9539991     0.5871207     0.0254930    -1.05000
Oh         O          0.8700198     0.5584006     0.0238095    -0.95000
Ob         O          0.8273841     0.6024568     0.0793651    -1.05000
Ob         O          0.9391412     0.5461318     0.0793651    -1.05000
Ob         O          0.9113635     0.6163986     0.0735931    -1.05000
H          H          0.8570999     0.5377667     0.0343915     0.42500
Mgo        Mg         0.8393350     0.6791368     0.0000000     1.36000
Si         Si         0.8638828     0.6308981     0.0644541     2.10000
Si         Si         0.8671128     0.7131549     0.0646946     2.10000
Omg        O          0.8577459     0.6356383     0.0254930    -1.18080
Omg        O          0.8719578     0.7120395     0.0254930    -1.18080
Oh         O          0.9546451     0.6835982     0.0238095    -0.95000
Ob         O          0.9120094     0.7273755     0.0793651    -1.05000
Ob         O          0.8574229     0.6710506     0.0793651    -1.05000
Ob         O          0.8296451     0.7413174     0.0735931    -1.05000
H          H          0.9417252     0.6626855     0.0343915     0.42500
Al         Al         0.9233144     0.7206835     0.0000000     1.57500
Si         Si         0.8961826     0.5190846     0.9355459     2.10000
Si         Si         0.8955366     0.6869442     0.9353054     2.10000
Omg        O          0.9023195     0.5143444     0.9745070    -1.18080
Omg        O          0.8906916     0.6877808     0.9745070    -1.18080
Oh         O          0.9746709     0.7165009     0.9761905    -0.95000
Ob         O          0.0173066     0.6724447     0.9206349    -1.05000
Ob         O          0.9052265     0.7287697     0.9208754    -1.05000
Ob         O          0.9330043     0.6585029     0.9266474    -1.05000
H          H          0.9875908     0.7374137     0.9658490     0.42500
Al         Al         0.8386890     0.5957647     0.0000000     1.57500
Si         Si         0.9808079     0.6442822     0.9355459     2.10000
Si         Si         0.9775779     0.5620255     0.9353054     2.10000
Op         O          0.9869448     0.6392632     0.9745070    -1.05000
Op         O          0.9727330     0.5628620     0.9745070    -1.05000
Oh         O          0.8900456     0.5915821     0.9761905    -0.95000
Ob         O          0.9326813     0.5475260     0.9206349    -1.05000
Ob         O          0.9872678     0.6038509     0.9208754    -1.05000
Ob         O          0.0150456     0.5335841     0.9266474    -1.05000
H          H          0.9029655     0.6122160     0.9658490     0.42500
Mgo        Mg         0.0906270     0.8043344     0.0000000     1.36000
Si         Si         0.1151748     0.7558169     0.0644541     2.10000
Si         Si         0.1184048     0.8380737     0.0646946     2.10000
Omg        O          0.1090379     0.7605571     0.0254930    -1.18080
Omg        O          0.1235728     0.8372372     0.0254930    -1.18080
Ohmg       O          0.0392704     0.8085170     0.0238095    -1.08090
Ob         O          0.9966348     0.8525732     0.0793651    -1.05000
Ob         O          0.1087149     0.7962482     0.0793651    -1.05000
Ob         O          0.0809371     0.8665150     0.0735931    -1.05000
H          H          0.0263505     0.7876043     0.0343915     0.42500
Al         Al         0.0089087     0.9292532     0.0000000     1.57500
Si         Si         0.0331335     0.8807357     0.0644541     2.10000
Si         Si         0.0366865     0.9629925     0.0646946     2.10000
Op         O          0.0269965     0.8854759     0.0254930    -1.05000
Op         O          0.0415314     0.9621560     0.0254930    -1.05000
Oh         O          0.1242187     0.9334358     0.0238095    -0.95000
Ob         O          0.0812601     0.9774920     0.0793651    -1.05000
Ob         O          0.0266735     0.9211670     0.0793651    -1.05000
Ob         O          0.9988958     0.9914338     0.0735931    -1.05000
H          H          0.1112989     0.9128019     0.0343915     0.42500
Al         Al         0.0925650     0.9707999     0.0000000     1.57500
Si         Si         0.0654332     0.7692010     0.9355459     2.10000
Si         Si         0.0651102     0.9370607     0.9353054     2.10000
Omg        O          0.0718932     0.7644608     0.9745070    -1.18080
Op         O          0.0599423     0.9378972     0.9745070    -1.05000
Oh         O          0.1442446     0.9666173     0.9761905    -0.95000
Ob         O          0.1868802     0.9225612     0.9206349    -1.05000
Ob         O          0.0748001     0.9788861     0.9208754    -1.05000
Ob         O          0.1025779     0.9086193     0.9266474    -1.05000
H          H          0.1568415     0.9872512     0.9658490     0.42500
Al         Al         0.0079397     0.8456023     0.0000000     1.57500
Si         Si         0.1503815     0.8941198     0.9355459     2.10000
Si         Si         0.1468286     0.8118630     0.9353054     2.10000
Op         O          0.1565185     0.8893796     0.9745070    -1.05000
Omg        O          0.1419836     0.8129784     0.9745070    -1.18080
Ohmg       O          0.0592963     0.8414197     0.9761905    -1.08090
Ob         O          0.1019319     0.7976424     0.9206349    -1.05000
Ob         O          0.1568415     0.8539674     0.9208754    -1.05000
Ob         O          0.1846193     0.7837005     0.9266474    -1.05000
H          H          0.0722162     0.8623325     0.9658490     0.42500
Al         Al         0.2572937     0.8043344     0.0000000     1.57500
Si         Si         0.2818415     0.7558169     0.0644541     2.10000
Si         Si         0.2850715     0.8380737     0.0646946     2.10000
Omg        O          0.2757045     0.7605571     0.0254930    -1.18080
Op         O          0.2902394     0.8372372     0.0254930    -1.05000
Oh         O          0.2059371     0.8085170     0.0238095    -0.95000
Ob         O          0.1633014     0.8525732     0.0793651    -1.05000
Ob         O          0.2753815     0.7962482     0.0793651    -1.05000
Ob         O          0.2476038     0.8665150     0.0735931    -1.05000
H          H          0.1930172     0.7876043     0.0343915     0.42500
Al         Al         0.1755753     0.9292532     0.0000000     1.57500
Si         Si         0.1998001     0.8807357     0.0644541     2.10000
Si         Si         0.2033531     0.9629925     0.0646946     2.10000
Op         O          0.1936632     0.8854759     0.0254930    -1.05000
Omg        O          0.2081981     0.9621560     0.0254930    -1.18080
Ohmg       O          0.2908854     0.9334358     0.0238095    -1.08090
Ob         O          0.2479268     0.9774920     0.0793651    -1.05000
Ob         O          0.1933402     0.9211670     0.0793651    -1.05000
Ob         O          0.1655624     0.9914338     0.0735931    -1.05000
H          H          0.2779655     0.9128019     0.0343915     0.42500
Mgo        Mg         0.2592317     0.9707999     0.0000000     1.36000
Si         Si         0.2320999     0.7692010     0.9355459     2.10000
Si         Si         0.2317769     0.9370607     0.9353054     2.10000
Omg        O          0.2385598     0.7644608     0.9745070    -1.18080
Omg        O          0.2266089     0.9378972     0.9745070    -1.18080
Ohmg       O          0.3109113     0.9666173     0.9761905    -1.08090
Ob         O          0.3535469     0.9225612     0.9206349    -1.05000
Ob         O          0.2414668     0.9788861     0.9208754    -1.05000
Ob         O          0.2692446     0.9086193     0.9266474    -1.05000
H          H          0.3235082     0.9872512     0.9658490     0.42500
Al         Al         0.1746063     0.8456023     0.0000000     1.57500
Si         Si         0.3170482     0.8941198     0.9355459     2.10000
Si         Si         0.3134952     0.8118630     0.9353054     2.10000
Op         O          0.3231852     0.8893796     0.9745070    -1.05000
Op         O          0.3086503     0.8129784     0.9745070    -1.05000
Oh         O          0.2259629     0.8414197     0.9761905    -0.95000
Ob         O          0.2685986     0.7976424     0.9206349    -1.05000
Ob         O          0.3235082     0.8539674     0.9208754    -1.05000
Ob         O          0.3512859     0.7837005     0.9266474    -1.05000
H          H          0.2388828     0.8623325     0.9658490     0.42500
Al         Al         0.4239604     0.8043344     0.0000000     1.57500
Si         Si         0.4485082     0.7558169     0.0644541     2.10000
Si         Si         0.4517381     0.8380737     0.0646946     2.10000
Op         O          0.4423712     0.7605571     0.0254930    -1.05000
Omg        O          0.4569061     0.8372372     0.0254930    -1.18080
Oh         O          0.3726038     0.8085170     0.0238095    -0.95000
Ob         O          0.3299681     0.8525732     0.0793651    -1.05000
Ob         O          0.4420482     0.7962482     0.0793651    -1.05000
Ob         O          0.4142704     0.8665150     0.0735931    -1.05000
H          H          0.3596839     0.7876043     0.0343915     0.42500
Al         Al         0.3422420     0.9292532     0.0000000     1.57500
Si         Si         0.3664668     0.8807357     0.0644541     2.10000
Si         Si         0.3700198     0.9629925     0.0646946     2.10000
Op         O          0.3603299     0.8854759     0.0254930    -1.05000
Op         O          0.3748647     0.9621560     0.0254930    -1.05000
Oh         O          0.4575521     0.9334358     0.0238095    -0.95000
Ob         O          0.4145934     0.9774920     0.0793651    -1.05000
Ob         O          0.3600069     0.9211670     0.0793651    -1.05000
Ob         O          0.3322291     0.9914338     0.0735931    -1.05000
H          H          0.4446322     0.9128019     0.0343915     0.42500
Al         Al         0.4258983     0.9707999     0.0000000     1.57500
Si         Si         0.3987666     0.7692010     0.9355459     2.10000
Si         Si         0.3984436     0.9370607     0.9353054     2.10000
Op         O          0.4052265     0.7644608     0.9745070    -1.05000
Op         O          0.3932756     0.9378972     0.9745070    -1.05000
Oh         O          0.4775779     0.9666173     0.9761905    -0.95000
Ob         O          0.5202136     0.9225612     0.9206349    -1.05000
Ob         O          0.4081335     0.9788861     0.9208754    -1.05000
Ob         O          0.4359113     0.9086193     0.9266474    -1.05000
H          H          0.4901748     0.9872512     0.9658490     0.42500
Al         Al         0.3412730     0.8456023     0.0000000     1.57500
Si         Si         0.4837149     0.8941198     0.9355459     2.10000
Si         Si         0.4801619     0.8118630     0.9353054     2.10000
Omg        O          0.4898518     0.8893796     0.9745070    -1.18080
Omg        O          0.4753169     0.8129784     0.9745070    -1.18080
Oh         O          0.3926296     0.8414197     0.9761905    -0.95000
Ob         O          0.4352653     0.7976424     0.9206349    -1.05000
Ob         O          0.4901748     0.8539674     0.9208754    -1.05000
Ob         O          0.5179526     0.7837005     0.9266474    -1.05000
H          H          0.4055495     0.8623325     0.9658490     0.42500
Al         Al         0.5906270     0.8043344     0.0000000     1.57500
Si         Si         0.6151748     0.7558169     0.0644541     2.10000
Si         Si         0.6184048     0.8380737     0.0646946     2.10000
Op         O          0.6090379     0.7605571     0.0254930    -1.05000
Op         O          0.6235728     0.8372372     0.0254930    -1.05000
Ohmg       O          0.5392704     0.8085170     0.0238095    -1.08090
Ob         O          0.4966348     0.8525732     0.0793651    -1.05000
Ob         O          0.6087149     0.7962482     0.0793651    -1.05000
Ob         O          0.5809371     0.8665150     0.0735931    -1.05000
H          H          0.5263505     0.7876043     0.0343915     0.42500
Al         Al         0.5089087     0.9292532     0.0000000     1.57500
Si         Si         0.5331335     0.8807357     0.0644541     2.10000
Si         Si         0.5366865     0.9629925     0.0646946     2.10000
Omg        O          0.5269965     0.8854759     0.0254930    -1.18080
Op         O          0.5415314     0.9621560     0.0254930    -1.05000
Oh         O          0.6242187     0.9334358     0.0238095    -0.95000
Ob         O          0.5812601     0.9774920     0.0793651    -1.05000
Ob         O          0.5266735     0.9211670     0.0793651    -1.05000
Ob         O          0.4988958     0.9914338     0.0735931    -1.05000
H          H          0.6112989     0.9128019     0.0343915     0.42500
Al         Al         0.5925650     0.9707999     0.0000000     1.57500
Si         Si         0.5654332     0.7692010     0.9355459     2.10000
Si         Si         0.5651102     0.9370607     0.9353054     2.10000
Op         O          0.5718932     0.7644608     0.9745070    -1.05000
Op         O          0.5599423     0.9378972     0.9745070    -1.05000
Oh         O          0.6442446     0.9666173     0.9761905    -0.95000
Ob         O          0.6868802     0.9225612     0.9206349    -1.05000
Ob         O          0.5748001     0.9788861     0.9208754    -1.05000
Ob         O          0.6025779     0.9086193     0.9266474    -1.05000
H          H          0.6568415     0.9872512     0.9658490     0.42500
Mgo        Mg         0.5079397     0.8456023     0.0000000     1.36000
Si         Si         0.6503815     0.8941198     0.9355459     2.10000
Si         Si         0.6468286     0.8118630     0.9353054     2.10000
Op         O          0.6565185     0.8893796     0.9745070    -1.05000
Op         O          0.6419836     0.8129784     0.9745070    -1.05000
Ohmg       O          0.5592963     0.8414197     0.9761905    -1.08090
Ob         O          0.6019319     0.7976424     0.9206349    -1.05000
Ob         O          0.6568415     0.8539674     0.9208754    -1.05000
Ob         O          0.6846193     0.7837005     0.9266474    -1.05000
H          H          0.5722162     0.8623325     0.9658490     0.42500
Al         Al         0.7572937     0.8043344     0.0000000     1.57500
Si         Si         0.7818415     0.7558169     0.0644541     2.10000
Si         Si         0.7850715     0.8380737     0.0646946     2.10000
Op         O          0.7757045     0.7605571     0.0254930    -1.05000
Omg        O          0.7902394     0.8372372     0.0254930    -1.18080
Oh         O          0.7059371     0.8085170     0.0238095    -0.95000
Ob         O          0.6633014     0.8525732     0.0793651    -1.05000
Ob         O          0.7753815     0.7962482     0.0793651    -1.05000
Ob         O          0.7476038     0.8665150     0.0735931    -1.05000
H          H          0.6930172     0.7876043     0.0343915     0.42500
Al         Al         0.6755753     0.9292532     0.0000000     1.57500
Si         Si         0.6998001     0.8807357     0.0644541     2.10000
Si         Si         0.7033531     0.9629925     0.0646946     2.10000
Op         O          0.6936632     0.8854759     0.0254930    -1.05000
Op         O          0.7081981     0.9621560     0.0254930    -1.05000
Oh         O          0.7908854     0.9334358     0.0238095    -0.95000
Ob         O          0.7479268     0.9774920     0.0793651    -1.05000
Ob         O          0.6933402     0.9211670     0.0793651    -1.05000
Ob         O          0.6655624     0.9914338     0.0735931    -1.05000
H          H          0.7779655     0.9128019     0.0343915     0.42500
Al         Al         0.7592317     0.9707999     0.0000000     1.57500
Si         Si         0.7320999     0.7692010     0.9355459     2.10000
Si         Si         0.7317769     0.9370607     0.9353054     2.10000
Op         O          0.7385598     0.7644608     0.9745070    -1.05000
Op         O          0.7266089     0.9378972     0.9745070    -1.05000
Oh         O          0.8109113     0.9666173     0.9761905    -0.95000
Ob         O          0.8535469     0.9225612     0.9206349    -1.05000
Ob         O          0.7414668     0.9788861     0.9208754    -1.05000
Ob         O          0.7692446     0.9086193     0.9266474    -1.05000
H          H          0.8235082     0.9872512     0.9658490     0.42500
Al         Al         0.6746063     0.8456023     0.0000000     1.57500
Si         Si         0.8170482     0.8941198     0.9355459     2.10000
Si         Si         0.8134952     0.8118630     0.9353054     2.10000
Omg        O          0.8231852     0.8893796     0.9745070    -1.18080
Omg        O          0.8086503     0.8129784     0.9745070    -1.18080
Oh         O          0.7259629     0.8414197     0.9761905    -0.95000
Ob         O          0.7685986     0.7976424     0.9206349    -1.05000
Ob         O          0.8235082     0.8539674     0.9208754    -1.05000
Ob         O          0.8512859     0.7837005     0.9266474    -1.05000
H          H          0.7388828     0.8623325     0.9658490     0.42500
Al         Al         0.9239604     0.8043344     0.0000000     1.57500
Si         Si         0.9485082     0.7558169     0.0644541     2.10000
Si         Si         0.9517381     0.8380737     0.0646946     2.10000
Op         O          0.9423712     0.7605571     0.0254930    -1.05000
Op         O          0.9569061     0.8372372     0.0254930    -1.05000
Ohmg       O          0.8726038     0.8085170     0.0238095    -1.08090
Ob         O          0.8299681     0.8525732     0.0793651    -1.05000
Ob         O          0.9420482     0.7962482     0.0793651    -1.05000
Ob         O          0.9142704     0.8665150     0.0735931    -1.05000
H          H          0.8596839     0.7876043     0.0343915     0.42500
Al         Al         0.8422420     0.9292532     0.0000000     1.57500
Si         Si         0.8664668     0.8807357     0.0644541     2.10000
Si         Si         0.8700198     0.9629925     0.0646946     2.10000
Omg        O          0.8603299     0.8854759     0.0254930    -1.18080
Op         O          0.8748647     0.9621560     0.0254930    -1.05000
Oh         O          0.9575521     0.9334358     0.0238095    -0.95000
Ob         O          0.9145934     0.9774920     0.0793651    -1.05000
Ob         O          0.8600069     0.9211670     0.0793651    -1.05000
Ob         O          0.8322291     0.9914338     0.0735931    -1.05000
H          H          0.9446322     0.9128019     0.0343915     0.42500
Al         Al         0.9258983     0.9707999     0.0000000     1.57500
Si         Si         0.8987666     0.7692010     0.9355459     2.10000
Si         Si         0.8984436     0.9370607     0.9353054     2.10000
Op         O          0.9052265     0.7644608     0.9745070    -1.05000
Op         O          0.8932756     0.9378972     0.9745070    -1.05000
Oh         O          0.9775779     0.9666173     0.9761905    -0.95000
Ob         O          0.0202136     0.9225612     0.9206349    -1.05000
Ob         O          0.9081335     0.9788861     0.9208754    -1.05000
Ob         O          0.9359113     0.9086193     0.9266474    -1.05000
H          H          0.9901748     0.9872512     0.9658490     0.42500
Mgo        Mg         0.8412730     0.8456023     0.0000000     1.36000
Si         Si         0.9837149     0.8941198     0.9355459     2.10000
Si         Si         0.9801619     0.8118630     0.9353054     2.10000
Op         O          0.9898518     0.8893796     0.9745070    -1.05000
Op         O          0.9753169     0.8129784     0.9745070    -1.05000
Ohmg       O          0.8926296     0.8414197     0.9761905    -1.08090
Ob         O          0.9352653     0.7976424     0.9206349    -1.05000
Ob         O          0.9901748     0.8539674     0.9208754    -1.05000
Ob         O          0.0179526     0.7837005     0.9266474    -1.05000
H          H          0.9055495     0.8623325     0.9658490     0.42500
Al         Al         0.1385383     0.1379150     0.5000000     1.57500
Si         Si         0.1630861     0.0893974     0.5644541     2.10000
Si         Si         0.1663161     0.1716542     0.5646946     2.10000
Op         O          0.1569492     0.0941377     0.5254930    -1.05000
Omg        O          0.1711610     0.1708177     0.5254930    -1.18080
Oh         O          0.0871817     0.1420976     0.5238095    -0.95000
Ob         O          0.0445461     0.1861537     0.5793651    -1.05000
Ob         O          0.1566262     0.1298288     0.5793651    -1.05000
Ob         O          0.1285254     0.2000956     0.5735931    -1.05000
H          H          0.0742618     0.1214637     0.5343915     0.42500
Al         Al         0.0564970     0.2628338     0.5000000     1.57500
Si         Si         0.0810448     0.2145951     0.5644541     2.10000
Si         Si         0.0842747     0.2965730     0.5646946     2.10000
Op         O          0.0749078     0.2193353     0.5254930    -1.05000
Op         O          0.0894427     0.2957365     0.5254930    -1.05000
Oh         O          0.1718070     0.2670164     0.5238095    -0.95000
Ob         O          0.1291714     0.3110725     0.5793651    -1.05000
Ob         O          0.0745848     0.2547475     0.5793651    -1.05000
Ob         O          0.0468070     0.3250144     0.5735931    -1.05000
H          H          0.1588871     0.2463824     0.5343915     0.42500
Al         Al         0.1404763     0.3043805     0.5000000     1.57500
Si         Si         0.1133445     0.1027816     0.4355459     2.10000
Si         Si         0.1126985     0.2706412     0.4353054     2.10000
Op         O          0.1194815     0.0980414     0.4745070    -1.05000
Op         O          0.1078535     0.2714777     0.4745070    -1.05000
Oh         O          0.1918329     0.3001979     0.4761905    -0.95000
Ob         O          0.2344685     0.2561417     0.4206349    -1.05000
Ob         O          0.1227114     0.3124667     0.4208754    -1.05000
Ob         O          0.1504892     0.2421999     0.4266474    -1.05000
H          H          0.2047528     0.3208318     0.4658490     0.42500
Al         Al         0.0558510     0.1794617     0.5000000     1.57500
Si         Si         0.1979698     0.2277004     0.4355459     2.10000
Si         Si         0.1947399     0.1457224     0.4353054     2.10000
Omg        O          0.2044298     0.2229602     0.4745070    -1.18080
Omg        O          0.1898949     0.1465589     0.4745070    -1.18080
Oh         O          0.1072076     0.1752791     0.4761905    -0.95000
Ob         O          0.1498432     0.1312229     0.4206349    -1.05000
Ob         O          0.2044298     0.1875479     0.4208754    -1.05000
Ob         O          0.2322076     0.1172811     0.4266474    -1.05000
H          H          0.1201274     0.1959130     0.4658490     0.42500
Al         Al         0.3052050     0.1379150     0.5000000     1.57500
Si         Si         0.3297528     0.0893974     0.5644541     2.10000
Si         Si         0.3329827     0.1716542     0.5646946     2.10000
Op         O          0.3236158     0.0941377     0.5254930    -1.05000
Op         O          0.3378277     0.1708177     0.5254930    -1.05000
Ohmg       O          0.2538484     0.1420976     0.5238095    -1.08090
Ob         O          0.2112127     0.1861537     0.5793651    -1.05000
Ob         O          0.3232928     0.1298288     0.5793651    -1.05000
Ob         O          0.2951920     0.2000956     0.5735931    -1.05000
H          H          0.2409285     0.1214637     0.5343915     0.42500
Al         Al         0.2231636     0.2628338     0.5000000     1.57500
Si         Si         0.2477114     0.2145951     0.5644541     2.10000
Si         Si         0.2509414     0.2965730     0.5646946     2.10000
Omg        O          0.2415745     0.2193353     0.5254930    -1.18080
Op         O          0.2561094     0.2957365     0.5254930    -1.05000
Oh         O          0.3384737     0.2670164     0.5238095    -0.95000
Ob         O          0.2958380     0.3110725     0.5793651    -1.05000
Ob         O          0.2412515     0.2547475     0.5793651    -1.05000
Ob         O          0.2134737     0.3250144     0.5735931    -1.05000
H          H          0.3255538     0.2463824     0.5343915     0.42500
Al         Al         0.3071430     0.3043805     0.5000000     1.57500
Si         Si         0.2800112     0.1027816     0.4355459     2.10000
Si         Si         0.2793652     0.2706412     0.4353054     2.10000
Op         O          0.2861481     0.0980414     0.4745070    -1.05000
Op         O          0.2745202     0.2714777     0.4745070    -1.05000
Oh         O          0.3584995     0.3001979     0.4761905    -0.95000
Ob         O          0.4011352     0.2561417     0.4206349    -1.05000
Ob         O          0.2893781     0.3124667     0.4208754    -1.05000
Ob         O          0.3171559     0.2421999     0.4266474    -1.05000
H          H          0.3714194     0.3208318     0.4658490     0.42500
Mgo        Mg         0.2225176     0.1794617     0.5000000     1.36000
Si         Si         0.3646365     0.2277004     0.4355459     2.10000
Si         Si         0.3614065     0.1457224     0.4353054     2.10000
Op         O          0.3710964     0.2229602     0.4745070    -1.05000
Op         O          0.3565616     0.1465589     0.4745070    -1.05000
Ohmg       O          0.2738742     0.1752791     0.4761905    -1.08090
Ob         O          0.3165099     0.1312229     0.4206349    -1.05000
Ob         O          0.3710964     0.1875479     0.4208754    -1.05000
Ob         O          0.3988742     0.1172811     0.4266474    -1.05000
H          H          0.2867941     0.1959130     0.4658490     0.42500
Al         Al         0.4718716     0.1379150     0.5000000     1.57500
Si         Si         0.4964194     0.0893974     0.5644541     2.10000
Si         Si         0.4996494     0.1716542     0.5646946     2.10000
Op         O          0.4902825     0.0941377     0.5254930    -1.05000
Op         O          0.5044944     0.1708177     0.5254930    -1.05000
Oh         O          0.4205150     0.1420976     0.5238095    -0.95000
Ob         O          0.3778794     0.1861537     0.5793651    -1.05000
Ob         O          0.4899595     0.1298288     0.5793651    -1.05000
Ob         O          0.4618587     0.2000956     0.5735931    -1.05000
H          H          0.4075951     0.1214637     0.5343915     0.42500
Al         Al         0.3898303     0.2628338     0.5000000     1.57500
Si         Si         0.4143781     0.2145951     0.5644541     2.10000
Si         Si         0.4176081     0.2965730     0.5646946     2.10000
Op         O          0.4082411     0.2193353     0.5254930    -1.05000
Op         O          0.4227760     0.2957365     0.5254930    -1.05000
Ohmg       O          0.5051404     0.2670164     0.5238095    -1.08090
Ob         O          0.4625047     0.3110725     0.5793651    -1.05000
Ob         O          0.4079181     0.2547475     0.5793651    -1.05000
Ob         O          0.3801404     0.3250144     0.5735931    -1.05000
H          H          0.4922205     0.2463824     0.5343915     0.42500
Al         Al         0.4738096     0.3043805     0.5000000     1.57500
Si         Si         0.4466778     0.1027816     0.4355459     2.10000
Si         Si         0.4460318     0.2706412     0.4353054     2.10000
Op         O          0.4528148     0.0980414     0.4745070    -1.05000
Op         O          0.4411869     0.2714777     0.4745070    -1.05000
Ohmg       O          0.5251662     0.3001979     0.4761905    -1.08090
Ob         O          0.5678019     0.2561417     0.4206349    -1.05000
Ob         O          0.4560448     0.3124667     0.4208754    -1.05000
Ob         O          0.4838225     0.2421999     0.4266474    -1.05000
H          H          0.5380861     0.3208318     0.4658490     0.42500
Al         Al         0.3891843     0.1794617     0.5000000     1.57500
Si         Si         0.5313032     0.2277004     0.4355459     2.10000
Si         Si         0.5280732     0.1457224     0.4353054     2.10000
Omg        O          0.5377631     0.2229602     0.4745070    -1.18080
Op         O          0.5232282     0.1465589     0.4745070    -1.05000
Oh         O          0.4405409     0.1752791     0.4761905    -0.95000
Ob         O          0.4831765     0.1312229     0.4206349    -1.05000
Ob         O          0.5377631     0.1875479     0.4208754    -1.05000
Ob         O          0.5655409     0.1172811     0.4266474    -1.05000
H          H          0.4534608     0.1959130     0.4658490     0.42500
Al         Al         0.6385383     0.1379150     0.5000000     1.57500
Si         Si         0.6630861     0.0893974     0.5644541     2.10000
Si         Si         0.6663161     0.1716542     0.5646946     2.10000
Op         O          0.6569492     0.0941377     0.5254930    -1.05000
Op         O          0.6711610     0.1708177     0.5254930    -1.05000
Oh         O          0.5871817     0.1420976     0.5238095    -0.95000
Ob         O          0.5445461     0.1861537     0.5793651    -1.05000
Ob         O          0.6566262     0.1298288     0.5793651    -1.05000
Ob         O          0.6285254     0.2000956     0.5735931    -1.05000
H          H          0.5742618     0.1214637     0.5343915     0.42500
Mgo        Mg         0.5564970     0.2628338     0.5000000     1.36000
Si         Si         0.5810448     0.2145951     0.5644541     2.10000
Si         Si         0.5842747     0.2965730     0.5646946     2.10000
Omg        O          0.5749078     0.2193353     0.5254930    -1.18080
Omg        O          0.5894427     0.2957365     0.5254930    -1.18080
Oh         O          0.6718070     0.2670164     0.5238095    -0.95000
Ob         O          0.6291714     0.3110725     0.5793651    -1.05000
Ob         O          0.5745848     0.2547475     0.5793651    -1.05000
Ob         O          0.5468070     0.3250144     0.5735931    -1.05000
H          H          0.6588871     0.2463824     0.5343915     0.42500
Al         Al         0.6404763     0.3043805     0.5000000     1.57500
Si         Si         0.6133445     0.1027816     0.4355459     2.10000
Si         Si         0.6126985     0.2706412     0.4353054     2.10000
Op         O          0.6194815     0.0980414     0.4745070    -1.05000
Omg        O          0.6078535     0.2714777     0.4745070    -1.18080
Oh         O          0.6918329     0.3001979     0.4761905    -0.95000
Ob         O          0.7344685     0.2561417     0.4206349    -1.05000
Ob         O          0.6227114     0.3124667     0.4208754    -1.05000
Ob         O          0.6504892     0.2421999     0.4266474    -1.05000
H          H          0.7047528     0.3208318     0.4658490     0.42500
Al         Al         0.5558510     0.1794617     0.5000000     1.57500
Si         Si         0.6979698     0.2277004     0.4355459     2.10000
Si         Si         0.6947399     0.1457224     0.4353054     2.10000
Op         O          0.7044298     0.2229602     0.4745070    -1.05000
Op         O          0.6898949     0.1465589     0.4745070    -1.05000
Oh         O          0.6072076     0.1752791     0.4761905    -0.95000
Ob         O          0.6498432     0.1312229     0.4206349    -1.05000
Ob         O          0.7044298     0.1875479     0.4208754    -1.05000
Ob         O          0.7322076     0.1172811     0.4266474    -1.05000
H          H          0.6201274     0.1959130     0.4658490     0.42500
Al         Al         0.8052050     0.1379150     0.5000000     1.57500
Si         Si         0.8297528     0.0893974     0.5644541     2.10000
Si         Si         0.8329827     0.1716542     0.5646946     2.10000
Op         O          0.8236158     0.0941377     0.5254930    -1.05000
Op         O          0.8378277     0.1708177     0.5254930    -1.05000
Oh         O          0.7538484     0.1420976     0.5238095    -0.95000
Ob         O          0.7112127     0.1861537     0.5793651    -1.05000
Ob         O          0.8232928     0.1298288     0.5793651    -1.05000
Ob         O          0.7951920     0.2000956     0.5735931    -1.05000
H          H          0.7409285     0.1214637     0.5343915     0.42500
Al         Al         0.7231636     0.2628338     0.5000000     1.57500
Si         Si         0.7477114     0.2145951     0.5644541     2.10000
Si         Si         0.7509414     0.2965730     0.5646946     2.10000
Op         O          0.7415745     0.2193353     0.5254930    -1.05000
Omg        O          0.7561094     0.2957365     0.5254930    -1.18080
Ohmg       O          0.8384737     0.2670164     0.5238095    -1.08090
Ob         O          0.7958380     0.3110725     0.5793651    -1.05000
Ob         O          0.7412515     0.2547475     0.5793651    -1.05000
Ob         O          0.7134737     0.3250144     0.5735931    -1.05000
H          H          0.8255538     0.2463824     0.5343915     0.42500
Mgo        Mg         0.8071430     0.3043805     0.5000000     1.36000
Si         Si         0.7800112     0.1027816     0.4355459     2.10000
Si         Si         0.7793652     0.2706412     0.4353054     2.10000
Op         O          0.7861481     0.0980414     0.4745070    -1.05000
Omg        O          0.7745202     0.2714777     0.4745070    -1.18080
Ohmg       O          0.8584995     0.3001979     0.4761905    -1.08090
Ob         O          0.9011352     0.2561417     0.4206349    -1.05000
Ob         O          0.7893781     0.3124667     0.4208754    -1.05000
Ob         O          0.8171559     0.2421999     0.4266474    -1.05000
H          H          0.8714194     0.3208318     0.4658490     0.42500
Al         Al         0.7225176     0.1794617     0.5000000     1.57500
Si         Si         0.8646365     0.2277004     0.4355459     2.10000
Si         Si         0.8614065     0.1457224     0.4353054     2.10000
Op         O          0.8710964     0.2229602     0.4745070    -1.05000
Op         O          0.8565616     0.1465589     0.4745070    -1.05000
Oh         O          0.7738742     0.1752791     0.4761905    -0.95000
Ob         O          0.8165099     0.1312229     0.4206349    -1.05000
Ob         O          0.8710964     0.1875479     0.4208754    -1.05000
Ob         O          0.8988742     0.1172811     0.4266474    -1.05000
H          H          0.7867941     0.1959130     0.4658490     0.42500
Mgo        Mg         0.9718716     0.1379150     0.5000000     1.36000
Si         Si         0.9964194     0.0893974     0.5644541     2.10000
Si         Si         0.9996494     0.1716542     0.5646946     2.10000
Omg        O          0.9902825     0.0941377     0.5254930    -1.18080
Omg        O          0.0044944     0.1708177     0.5254930    -1.18080
Ohmg       O          0.9205150     0.1420976     0.5238095    -1.08090
Ob         O          0.8778794     0.1861537     0.5793651    -1.05000
Ob         O          0.9899595     0.1298288     0.5793651    -1.05000
Ob         O          0.9618587     0.2000956     0.5735931    -1.05000
H          H          0.9075951     0.1214637     0.5343915     0.42500
Al         Al         0.8898303     0.2628338     0.5000000     1.57500
Si         Si         0.9143781     0.2145951     0.5644541     2.10000
Si         Si         0.9176081     0.2965730     0.5646946     2.10000
Op         O          0.9082411     0.2193353     0.5254930    -1.05000
Op         O          0.9227760     0.2957365     0.5254930    -1.05000
Oh         O          0.0051404     0.2670164     0.5238095    -0.95000
Ob         O          0.9625047     0.3110725     0.5793651    -1.05000
Ob         O          0.9079181     0.2547475     0.5793651    -1.05000
Ob         O          0.8801404     0.3250144     0.5735931    -1.05000
H          H          0.9922205     0.2463824     0.5343915     0.42500
Al         Al         0.9738096     0.3043805     0.5000000     1.57500
Si         Si         0.9466778     0.1027816     0.4355459     2.10000
Si         Si         0.9460318     0.2706412     0.4353054     2.10000
Omg        O          0.9528148     0.0980414     0.4745070    -1.18080
Op         O          0.9411869     0.2714777     0.4745070    -1.05000
Oh         O          0.0251662     0.3001979     0.4761905    -0.95000
Ob         O          0.0678019     0.2561417     0.4206349    -1.05000
Ob         O          0.9560448     0.3124667     0.4208754    -1.05000
Ob         O          0.9838225     0.2421999     0.4266474    -1.05000
H          H          0.0380861     0.3208318     0.4658490     0.42500
Al         Al         0.8891843     0.1794617     0.5000000     1.57500
Si         Si         0.0313032     0.2277004     0.4355459     2.10000
Si         Si         0.0280732     0.1457224     0.4353054     2.10000
Op         O          0.0377631     0.2229602     0.4745070    -1.05000
Omg        O          0.0232282     0.1465589     0.4745070    -1.18080
Ohmg       O          0.9405409     0.1752791     0.4761905    -1.08090
Ob         O          0.9831765     0.1312229     0.4206349    -1.05000
Ob         O          0.0377631     0.1875479     0.4208754    -1.05000
Ob         O          0.0655409     0.1172811     0.4266474    -1.05000
H          H          0.9534608     0.1959130     0.4658490     0.42500
Al         Al         0.1411223     0.3880314     0.5000000     1.57500
Si         Si         0.1656701     0.3395139     0.5644541     2.10000
Si         Si         0.1689001     0.4217707     0.5646946     2.10000
Op         O          0.1595331     0.3442541     0.5254930    -1.05000
Op         O          0.1740680     0.4206553     0.5254930    -1.05000
Oh         O          0.0897657     0.3922140     0.5238095    -0.95000
Ob         O          0.0471300     0.4362702     0.5793651    -1.05000
Ob         O          0.1592101     0.3799452     0.5793651    -1.05000
Ob         O          0.1314324     0.4499331     0.5735931    -1.05000
H          H          0.0768458     0.3713012     0.5343915     0.42500
Mgo        Mg         0.0594039     0.5129502     0.5000000     1.36000
Si         Si         0.0836287     0.4644327     0.5644541     2.10000
Si         Si         0.0871817     0.5466894     0.5646946     2.10000
Omg        O          0.0774918     0.4691729     0.5254930    -1.18080
Omg        O          0.0920267     0.5458529     0.5254930    -1.18080
Oh         O          0.1747140     0.5171328     0.5238095    -0.95000
Ob         O          0.1320784     0.5611889     0.5793651    -1.05000
Ob         O          0.0771688     0.5048640     0.5793651    -1.05000
Ob         O          0.0493910     0.5751308     0.5735931    -1.05000
H          H          0.1617941     0.4962200     0.5343915     0.42500
Al         Al         0.1433833     0.5544969     0.5000000     1.57500
Si         Si         0.1159285     0.3528980     0.4355459     2.10000
Si         Si         0.1156055     0.5207576     0.4353054     2.10000
Op         O          0.1223884     0.3481578     0.4745070    -1.05000
Omg        O          0.1104375     0.5215942     0.4745070    -1.18080
Oh         O          0.1947399     0.5500355     0.4761905    -0.95000
Ob         O          0.2373755     0.5062581     0.4206349    -1.05000
Ob         O          0.1252954     0.5625831     0.4208754    -1.05000
Ob         O          0.1530732     0.4923163     0.4266474    -1.05000
H          H          0.2076597     0.5709482     0.4658490     0.42500
Al         Al         0.0584349     0.4292992     0.5000000     1.57500
Si         Si         0.2008768     0.4778168     0.4355459     2.10000
Si         Si         0.1973238     0.3955600     0.4353054     2.10000
Op         O          0.2070138     0.4730766     0.4745070    -1.05000
Op         O          0.1924789     0.3963965     0.4745070    -1.05000
Oh         O          0.1097915     0.4251167     0.4761905    -0.95000
Ob         O          0.1524272     0.3810605     0.4206349    -1.05000
Ob         O          0.2073368     0.4373855     0.4208754    -1.05000
Ob         O          0.2351145     0.3671187     0.4266474    -1.05000
H          H          0.1227114     0.4460294     0.4658490     0.42500
Mgo        Mg         0.3077889     0.3880314     0.5000000     1.36000
Si         Si         0.3323368     0.3395139     0.5644541     2.10000
Si         Si         0.3355667     0.4217707     0.5646946     2.10000
Omg        O          0.3261998     0.3442541     0.5254930    -1.18080
Omg        O          0.3407347     0.4206553     0.5254930    -1.18080
Ohmg       O          0.2564324     0.3922140     0.5238095    -1.08090
Ob         O          0.2137967     0.4362702     0.5793651    -1.05000
Ob         O          0.3258768     0.3799452     0.5793651    -1.05000
Ob         O          0.2980990     0.4499331     0.5735931    -1.05000
H          H          0.2435125     0.3713012     0.5343915     0.42500
Al         Al         0.2260706     0.5129502     0.5000000     1.57500
Si         Si         0.2502954     0.4644327     0.5644541     2.10000
Si         Si         0.2538484     0.5466894     0.5646946     2.10000
Op         O          0.2441585     0.4691729     0.5254930    -1.05000
Op         O          0.2586933     0.5458529     0.5254930    -1.05000
Oh         O          0.3413807     0.5171328     0.5238095    -0.95000
Ob         O          0.2987450     0.5611889     0.5793651    -1.05000
Ob         O          0.2438355     0.5048640     0.5793651    -1.05000
Ob         O          0.2160577     0.5751308     0.5735931    -1.05000
H          H          0.3284608     0.4962200     0.5343915     0.42500
Al         Al         0.3100499     0.5544969     0.5000000     1.57500
Si         Si         0.2825951     0.3528980     0.4355459     2.10000
Si         Si         0.2822722     0.5207576     0.4353054     2.10000
Omg        O          0.2890551     0.3481578     0.4745070    -1.18080
Op         O          0.2771042     0.5215942     0.4745070    -1.05000
Oh         O          0.3614065     0.5500355     0.4761905    -0.95000
Ob         O          0.4040422     0.5062581     0.4206349    -1.05000
Ob         O          0.2919621     0.5625831     0.4208754    -1.05000
Ob         O          0.3197399     0.4923163     0.4266474    -1.05000
H          H          0.3743264     0.5709482     0.4658490     0.42500
Al         Al         0.2251016     0.4292992     0.5000000     1.57500
Si         Si         0.3675435     0.4778168     0.4355459     2.10000
Si         Si         0.3639905     0.3955600     0.4353054     2.10000
Op         O          0.3736804     0.4730766     0.4745070    -1.05000
Omg        O          0.3591455     0.3963965     0.4745070    -1.18080
Ohmg       O          0.2764582     0.4251167     0.4761905    -1.08090
Ob         O          0.3190939     0.3810605     0.4206349    -1.05000
Ob         O          0.3740034     0.4373855     0.4208754    -1.05000
Ob         O          0.4017812     0.3671187     0.4266474    -1.05000
H          H          0.2893781     0.4460294     0.4658490     0.42500
Al         Al         0.4744556     0.3880314     0.5000000     1.57500
Si         Si         0.4990034     0.3395139     0.5644541     2.10000
Si         Si         0.5022334     0.4217707     0.5646946     2.10000
Op         O          0.4928665     0.3442541     0.5254930    -1.05000
Omg        O          0.5074014     0.4206553     0.5254930    -1.18080
Oh         O          0.4230990     0.3922140     0.5238095    -0.95000
Ob         O          0.3804634     0.4362702     0.5793651    -1.05000
Ob         O          0.4925435     0.3799452     0.5793651    -1.05000
Ob         O          0.4647657     0.4499331     0.5735931    -1.05000
H          H          0.4101791     0.3713012     0.5343915     0.42500
Al         Al         0.3927373     0.5129502     0.5000000     1.57500
Si         Si         0.4169621     0.4644327     0.5644541     2.10000
Si         Si         0.4205150     0.5466894     0.5646946     2.10000
Op         O          0.4108251     0.4691729     0.5254930    -1.05000
Op         O          0.4253600     0.5458529     0.5254930    -1.05000
Oh         O          0.5080473     0.5171328     0.5238095    -0.95000
Ob         O          0.4654117     0.5611889     0.5793651    -1.05000
Ob         O          0.4105021     0.5048640     0.5793651    -1.05000
Ob         O          0.3827243     0.5751308     0.5735931    -1.05000
H          H          0.4951274     0.4962200     0.5343915     0.42500
Al         Al         0.4767166     0.5544969     0.5000000     1.57500
Si         Si         0.4492618     0.3528980     0.4355459     2.10000
Si         Si         0.4489388     0.5207576     0.4353054     2.10000
Op         O          0.4557218     0.3481578     0.4745070    -1.05000
Op         O          0.4437709     0.5215942     0.4745070    -1.05000
Oh         O          0.5280732     0.5500355     0.4761905    -0.95000
Ob         O          0.5707088     0.5062581     0.4206349    -1.05000
Ob         O          0.4586287     0.5625831     0.4208754    -1.05000
Ob         O          0.4864065     0.4923163     0.4266474    -1.05000
H          H          0.5409931     0.5709482     0.4658490     0.42500
Al         Al         0.3917683     0.4292992     0.5000000     1.57500
Si         Si         0.5342101     0.4778168     0.4355459     2.10000
Si         Si         0.5306572     0.3955600     0.4353054     2.10000
Omg        O          0.5403471     0.4730766     0.4745070    -1.18080
Omg        O          0.5258122     0.3963965     0.4745070    -1.18080
Oh         O          0.4431249     0.4251167     0.4761905    -0.95000
Ob         O          0.4857605     0.3810605     0.4206349    -1.05000
Ob         O          0.5406701     0.4373855     0.4208754    -1.05000
Ob         O          0.5684479     0.3671187     0.4266474    -1.05000
H          H          0.4560448     0.4460294     0.4658490     0.42500
Al         Al         0.6411223     0.3880314     0.5000000     1.57500
Si         Si         0.6656701     0.3395139     0.5644541     2.10000
Si         Si         0.6689001     0.4217707     0.5646946     2.10000
Op         O          0.6595331     0.3442541     0.5254930    -1.05000
Op         O          0.6740680     0.4206553     0.5254930    -1.05000
Ohmg       O          0.5897657     0.3922140     0.5238095    -1.08090
Ob         O          0.5471300     0.4362702     0.5793651    -1.05000
Ob         O          0.6592101     0.3799452     0.5793651    -1.05000
Ob         O          0.6314324     0.4499331     0.5735931    -1.05000
H          H          0.5768458     0.3713012     0.5343915     0.42500
Al         Al         0.5594039     0.5129502     0.5000000     1.57500
Si         Si         0.5836287     0.4644327     0.5644541     2.10000
Si         Si         0.5871817     0.5466894     0.5646946     2.10000
Omg        O          0.5774918     0.4691729     0.5254930    -1.18080
Op         O          0.5920267     0.5458529     0.5254930    -1.05000
Oh         O          0.6747140     0.5171328     0.5238095    -0.95000
Ob         O          0.6320784     0.5611889     0.5793651    -1.05000
Ob         O          0.5771688     0.5048640     0.5793651    -1.05000
Ob         O          0.5493910     0.5751308     0.5735931    -1.05000
H          H          0.6617941     0.4962200     0.5343915     0.42500
Al         Al         0.6433833     0.5544969     0.5000000     1.57500
Si         Si         0.6159285     0.3528980     0.4355459     2.10000
Si         Si         0.6156055     0.5207576     0.4353054     2.10000
Op         O          0.6223884     0.3481578     0.4745070    -1.05000
Op         O          0.6104375     0.5215942     0.4745070    -1.05000
Oh         O          0.6947399     0.5500355     0.4761905    -0.95000
Ob         O          0.7373755     0.5062581     0.4206349    -1.05000
Ob         O          0.6252954     0.5625831     0.4208754    -1.05000
Ob         O          0.6530732     0.4923163     0.4266474    -1.05000
H          H          0.7076597     0.5709482     0.4658490     0.42500
Mgo        Mg         0.5584349     0.4292992     0.5000000     1.36000
Si         Si         0.7008768     0.4778168     0.4355459     2.10000
Si         Si         0.6973238     0.3955600     0.4353054     2.10000
Op         O          0.7070138     0.4730766     0.4745070    -1.05000
Op         O          0.6924789     0.3963965     0.4745070    -1.05000
Ohmg       O          0.6097915     0.4251167     0.4761905    -1.08090
Ob         O          0.6524272     0.3810605     0.4206349    -1.05000
Ob         O          0.7073368     0.4373855     0.4208754    -1.05000
Ob         O          0.7351145     0.3671187     0.4266474    -1.05000
H          H          0.6227114     0.4460294     0.4658490     0.42500
Al         Al         0.8077889     0.3880314     0.5000000     1.57500
Si         Si         0.8323368     0.3395139     0.5644541     2.10000
Si         Si         0.8355667     0.4217707     0.5646946     2.10000
Omg        O          0.8261998     0.3442541     0.5254930    -1.18080
Op         O          0.8407347     0.4206553     0.5254930    -1.05000
Oh         O          0.7564324     0.3922140     0.5238095    -0.95000
Ob         O          0.7137967     0.4362702     0.5793651    -1.05000
Ob         O          0.8258768     0.3799452     0.5793651    -1.05000
Ob         O          0.7980990     0.4499331     0.5735931    -1.05000
H          H          0.7435125     0.3713012     0.5343915     0.42500
Al         Al         0.7260706     0.5129502     0.5000000     1.57500
Si         Si         0.7502954     0.4644327     0.5644541     2.10000
Si         Si         0.7538484     0.5466894     0.5646946     2.10000
Op         O          0.7441585     0.4691729     0.5254930    -1.05000
Op         O          0.7586933     0.5458529     0.5254930    -1.05000
Oh         O          0.8413807     0.5171328     0.5238095    -0.95000
Ob         O          0.7987450     0.5611889     0.5793651    -1.05000
Ob         O          0.7438355     0.5048640     0.5793651    -1.05000
Ob         O          0.7160577     0.5751308     0.5735931    -1.05000
H          H          0.8284608     0.4962200     0.5343915     0.42500
Al         Al         0.8100499     0.5544969     0.5000000     1.57500
Si         Si         0.7825951     0.3528980     0.4355459     2.10000
Si         Si         0.7822722     0.5207576     0.4353054     2.10000
Omg        O          0.7890551     0.3481578     0.4745070    -1.18080
Op         O          0.7771042     0.5215942     0.4745070    -1.05000
Oh         O          0.8614065     0.5500355     0.4761905    -0.95000
Ob         O          0.9040422     0.5062581     0.4206349    -1.05000
Ob         O          0.7919621     0.5625831     0.4208754    -1.05000
Ob         O          0.8197399     0.4923163     0.4266474    -1.05000
H          H          0.8743264     0.5709482     0.4658490     0.42500
Al         Al         0.7251016     0.4292992     0.5000000     1.57500
Si         Si         0.8675435     0.4778168     0.4355459     2.10000
Si         Si         0.8639905     0.3955600     0.4353054     2.10000
Op         O          0.8736804     0.4730766     0.4745070    -1.05000
Op         O          0.8591455     0.3963965     0.4745070    -1.05000
Oh         O          0.7764582     0.4251167     0.4761905    -0.95000
Ob         O          0.8190939     0.3810605     0.4206349    -1.05000
Ob         O          0.8740034     0.4373855     0.4208754    -1.05000
Ob         O          0.9017812     0.3671187     0.4266474    -1.05000
H          H          0.7893781     0.4460294     0.4658490     0.42500
Al         Al         0.9744556     0.3880314     0.5000000     1.57500
Si         Si         0.9990034     0.3395139     0.5644541     2.10000
Si         Si         0.0022334     0.4217707     0.5646946     2.10000
Op         O          0.9928665     0.3442541     0.5254930    -1.05000
Op         O          0.0074014     0.4206553     0.5254930    -1.05000
Oh         O          0.9230990     0.3922140     0.5238095    -0.95000
Ob         O          0.8804634     0.4362702     0.5793651    -1.05000
Ob         O          0.9925435     0.3799452     0.5793651    -1.05000
Ob         O          0.9647657     0.4499331     0.5735931    -1.05000
H          H          0.9101791     0.3713012     0.5343915     0.42500
Al         Al         0.8927373     0.5129502     0.5000000     1.57500
Si         Si         0.9169621     0.4644327     0.5644541     2.10000
Si         Si         0.9205150     0.5466894     0.5646946     2.10000
Op         O          0.9108251     0.4691729     0.5254930    -1.05000
Op         O          0.9253600     0.5458529     0.5254930    -1.05000
Ohmg       O          0.0080473     0.5171328     0.5238095    -1.08090
Ob         O          0.9654117     0.5611889     0.5793651    -1.05000
Ob         O          0.9105021     0.5048640     0.5793651    -1.05000
Ob         O          0.8827243     0.5751308     0.5735931    -1.05000
H          H          0.9951274     0.4962200     0.5343915     0.42500
Al         Al         0.9767166     0.5544969     0.5000000     1.57500
Si         Si         0.9492618     0.3528980     0.4355459     2.10000
Si         Si         0.9489388     0.5207576     0.4353054     2.10000
Op         O          0.9557218     0.3481578     0.4745070    -1.05000
Op         O          0.9437709     0.5215942     0.4745070    -1.05000
Ohmg       O          0.0280732     0.5500355     0.4761905    -1.08090
Ob         O          0.0707088     0.5062581     0.4206349    -1.05000
Ob         O          0.9586287     0.5625831     0.4208754    -1.05000
Ob         O          0.9864065     0.4923163     0.4266474    -1.05000
H          H          0.0409931     0.5709482     0.4658490     0.42500
Al         Al         0.8917683     0.4292992     0.5000000     1.57500
Si         Si         0.0342101     0.4778168     0.4355459     2.10000
Si         Si         0.0306572     0.3955600     0.4353054     2.10000
Omg        O          0.0403471     0.4730766     0.4745070    -1.18080
Op         O          0.0258122     0.3963965     0.4745070    -1.05000
Oh         O          0.9431249     0.4251167     0.4761905    -0.95000
Ob         O          0.9857605     0.3810605     0.4206349    -1.05000
Ob         O          0.0406701     0.4373855     0.4208754    -1.05000
Ob         O          0.0684479     0.3671187     0.4266474    -1.05000
H          H          0.9560448     0.4460294     0.4658490     0.42500
Al         Al         0.1440293     0.6378690     0.5000000     1.57500
Si         Si         0.1685771     0.5893514     0.5644541     2.10000
Si         Si         0.1718070     0.6716082     0.5646946     2.10000
Op         O          0.1621171     0.5943705     0.5254930    -1.05000
Op         O          0.1766520     0.6707717     0.5254930    -1.05000
Ohmg       O          0.0926727     0.6420516     0.5238095    -1.08090
Ob         O          0.0500370     0.6861077     0.5793651    -1.05000
Ob         O          0.1617941     0.6297827     0.5793651    -1.05000
Ob         O          0.1340163     0.7000496     0.5735931    -1.05000
H          H          0.0797528     0.6214176     0.5343915     0.42500
Al         Al         0.0619879     0.7627878     0.5000000     1.57500
Si         Si         0.0865357     0.7145491     0.5644541     2.10000
Si         Si         0.0897657     0.7968059     0.5646946     2.10000
Omg        O          0.0803988     0.7192893     0.5254930    -1.18080
Op         O          0.0946107     0.7956905     0.5254930    -1.05000
Oh         O          0.1772980     0.7672492     0.5238095    -0.95000
Ob         O          0.1346623     0.8110265     0.5793651    -1.05000
Ob         O          0.0800758     0.7547015     0.5793651    -1.05000
Ob         O          0.0522980     0.8249684     0.5735931    -1.05000
H          H          0.1643781     0.7463364     0.5343915     0.42500
Al         Al         0.1459672     0.8043344     0.5000000     1.57500
Si         Si         0.1188355     0.6027356     0.4355459     2.10000
Si         Si         0.1181895     0.7705952     0.4353054     2.10000
Op         O          0.1249724     0.5979954     0.4745070    -1.05000
Op         O          0.1133445     0.7714317     0.4745070    -1.05000
Oh         O          0.1973238     0.8001519     0.4761905    -0.95000
Ob         O          0.2399595     0.7560957     0.4206349    -1.05000
Ob         O          0.1278794     0.8124207     0.4208754    -1.05000
Ob         O          0.1556572     0.7421539     0.4266474    -1.05000
H          H          0.2102437     0.8210646     0.4658490     0.42500
Mgo        Mg         0.0613419     0.6794157     0.5000000     1.36000
Si         Si         0.2034608     0.7279332     0.4355459     2.10000
Si         Si         0.2002308     0.6456764     0.4353054     2.10000
Op         O          0.2095977     0.7229142     0.4745070    -1.05000
Op         O          0.1953858     0.6465129     0.4745070    -1.05000
Ohmg       O          0.1126985     0.6752331     0.4761905    -1.08090
Ob         O          0.1553342     0.6311769     0.4206349    -1.05000
Ob         O          0.2099207     0.6875019     0.4208754    -1.05000
Ob         O          0.2376985     0.6172351     0.4266474    -1.05000
H          H          0.1256184     0.6958670     0.4658490     0.42500
Al         Al         0.3106959     0.6378690     0.5000000     1.57500
Si         Si         0.3352437     0.5893514     0.5644541     2.10000
Si         Si         0.3384737     0.6716082     0.5646946     2.10000
Op         O          0.3287838     0.5943705     0.5254930    -1.05000
Omg        O          0.3433187     0.6707717     0.5254930    -1.18080
Oh         O          0.2593393     0.6420516     0.5238095    -0.95000
Ob         O          0.2167037     0.6861077     0.5793651    -1.05000
Ob         O          0.3284608     0.6297827     0.5793651    -1.05000
Ob         O          0.3006830     0.7000496     0.5735931    -1.05000
H          H          0.2464194     0.6214176     0.5343915     0.42500
Al         Al         0.2286546     0.7627878     0.5000000     1.57500
Si         Si         0.2532024     0.7145491     0.5644541     2.10000
Si         Si         0.2564324     0.7968059     0.5646946     2.10000
Op         O          0.2470654     0.7192893     0.5254930    -1.05000
Op         O          0.2612773     0.7956905     0.5254930    -1.05000
Oh         O          0.3439647     0.7672492     0.5238095    -0.95000
Ob         O          0.3013290     0.8110265     0.5793651    -1.05000
Ob         O          0.2467424     0.7547015     0.5793651    -1.05000
Ob         O          0.2189647     0.8249684     0.5735931    -1.05000
H          H          0.3310448     0.7463364     0.5343915     0.42500
Al         Al         0.3126339     0.8043344     0.5000000     1.57500
Si         Si         0.2855021     0.6027356     0.4355459     2.10000
Si         Si         0.2848561     0.7705952     0.4353054     2.10000
Op         O          0.2916391     0.5979954     0.4745070    -1.05000
Op         O          0.2800112     0.7714317     0.4745070    -1.05000
Oh         O          0.3639905     0.8001519     0.4761905    -0.95000
Ob         O          0.4066262     0.7560957     0.4206349    -1.05000
Ob         O          0.2945461     0.8124207     0.4208754    -1.05000
Ob         O          0.3223238     0.7421539     0.4266474    -1.05000
H          H          0.3769104     0.8210646     0.4658490     0.42500
Al         Al         0.2280086     0.6794157     0.5000000     1.57500
Si         Si         0.3701274     0.7279332     0.4355459     2.10000
Si         Si         0.3668975     0.6456764     0.4353054     2.10000
Omg        O          0.3762644     0.7229142     0.4745070    -1.18080
Omg        O          0.3620525     0.6465129     0.4745070    -1.18080
Oh         O          0.2793652     0.6752331     0.4761905    -0.95000
Ob         O          0.3220008     0.6311769     0.4206349    -1.05000
Ob         O          0.3765874     0.6875019     0.4208754    -1.05000
Ob         O          0.4043652     0.6172351     0.4266474    -1.05000
H          H          0.2922851     0.6958670     0.4658490     0.42500
Al         Al         0.4773626     0.6378690     0.5000000     1.57500
Si         Si         0.5019104     0.5893514     0.5644541     2.10000
Si         Si         0.5051404     0.6716082     0.5646946     2.10000
Op         O          0.4954504     0.5943705     0.5254930    -1.05000
Op         O          0.5099853     0.6707717     0.5254930    -1.05000
Ohmg       O          0.4260060     0.6420516     0.5238095    -1.08090
Ob         O          0.3833703     0.6861077     0.5793651    -1.05000
Ob         O          0.4951274     0.6297827     0.5793651    -1.05000
Ob         O          0.4673497     0.7000496     0.5735931    -1.05000
H          H          0.4130861     0.6214176     0.5343915     0.42500
Al         Al         0.3953212     0.7627878     0.5000000     1.57500
Si         Si         0.4198691     0.7145491     0.5644541     2.10000
Si         Si         0.4230990     0.7968059     0.5646946     2.10000
Omg        O          0.4137321     0.7192893     0.5254930    -1.18080
Op         O          0.4279440     0.7956905     0.5254930    -1.05000
Ohmg       O          0.5106313     0.7672492     0.5238095    -1.08090
Ob         O          0.4679957     0.8110265     0.5793651    -1.05000
Ob         O          0.4134091     0.7547015     0.5793651    -1.05000
Ob         O          0.3856313     0.8249684     0.5735931    -1.05000
H          H          0.4977114     0.7463364     0.5343915     0.42500
Al         Al         0.4793006     0.8043344     0.5000000     1.57500
Si         Si         0.4521688     0.6027356     0.4355459     2.10000
Si         Si         0.4515228     0.7705952     0.4353054     2.10000
Op         O          0.4583057     0.5979954     0.4745070    -1.05000
Op         O          0.4466778     0.7714317     0.4745070    -1.05000
Ohmg       O          0.5306572     0.8001519     0.4761905    -1.08090
Ob         O          0.5732928     0.7560957     0.4206349    -1.05000
Ob         O          0.4612127     0.8124207     0.4208754    -1.05000
Ob         O          0.4889905     0.7421539     0.4266474    -1.05000
H          H          0.5435771     0.8210646     0.4658490     0.42500
Mgo        Mg         0.3946753     0.6794157     0.5000000     1.36000
Si         Si         0.5367941     0.7279332     0.4355459     2.10000
Si         Si         0.5335641     0.6456764     0.4353054     2.10000
Omg        O          0.5429311     0.7229142     0.4745070    -1.18080
Op         O          0.5287192     0.6465129     0.4745070    -1.05000
Ohmg       O          0.4460318     0.6752331     0.4761905    -1.08090
Ob         O          0.4886675     0.6311769     0.4206349    -1.05000
Ob         O          0.5432541     0.6875019     0.4208754    -1.05000
Ob         O          0.5710318     0.6172351     0.4266474    -1.05000
H          H          0.4589517     0.6958670     0.4658490     0.42500
Al         Al         0.6440293     0.6378690     0.5000000     1.57500
Si         Si         0.6685771     0.5893514     0.5644541     2.10000
Si         Si         0.6718070     0.6716082     0.5646946     2.10000
Op         O          0.6621171     0.5943705     0.5254930    -1.05000
Op         O          0.6766520     0.6707717     0.5254930    -1.05000
Oh         O          0.5926727     0.6420516     0.5238095    -0.95000
Ob         O          0.5500370     0.6861077     0.5793651    -1.05000
Ob         O          0.6617941     0.6297827     0.5793651    -1.05000
Ob         O          0.6340163     0.7000496     0.5735931    -1.05000
H          H          0.5797528     0.6214176     0.5343915     0.42500
Mgo        Mg         0.5619879     0.7627878     0.5000000     1.36000
Si         Si         0.5865357     0.7145491     0.5644541     2.10000
Si         Si         0.5897657     0.7968059     0.5646946     2.10000
Omg        O          0.5803988     0.7192893     0.5254930    -1.18080
Omg        O          0.5946107     0.7956905     0.5254930    -1.18080
Oh         O          0.6772980     0.7672492     0.5238095    -0.95000
Ob         O          0.6346623     0.8110265     0.5793651    -1.05000
Ob         O          0.5800758     0.7547015     0.5793651    -1.05000
Ob         O          0.5522980     0.8249684     0.5735931    -1.05000
H          H          0.6643781     0.7463364     0.5343915     0.42500
Al         Al         0.6459672     0.8043344     0.5000000     1.57500
Si         Si         0.6188355     0.6027356     0.4355459     2.10000
Si         Si         0.6181895     0.7705952     0.4353054     2.10000
Op         O          0.6249724     0.5979954     0.4745070    -1.05000
Omg        O          0.6133445     0.7714317     0.4745070    -1.18080
Oh         O          0.6973238     0.8001519     0.4761905    -0.95000
Ob         O          0.7399595     0.7560957     0.4206349    -1.05000
Ob         O          0.6278794     0.8124207     0.4208754    -1.05000
Ob         O          0.6556572     0.7421539     0.4266474    -1.05000
H          H          0.7102437     0.8210646     0.4658490     0.42500
Al         Al         0.5613419     0.6794157     0.5000000     1.57500
Si         Si         0.7034608     0.7279332     0.4355459     2.10000
Si         Si         0.7002308     0.6456764     0.4353054     2.10000
Op         O          0.7095977     0.7229142     0.4745070    -1.05000
Op         O          0.6953858     0.6465129     0.4745070    -1.05000
Oh         O          0.6126985     0.6752331     0.4761905    -0.95000
Ob         O          0.6553342     0.6311769     0.4206349    -1.05000
Ob         O          0.7099207     0.6875019     0.4208754    -1.05000
Ob         O          0.7376985     0.6172351     0.4266474    -1.05000
H          H          0.6256184     0.6958670     0.4658490     0.42500
Mgo        Mg         0.8106959     0.6378690     0.5000000     1.36000
Si         Si         0.8352437     0.5893514     0.5644541     2.10000
Si         Si         0.8384737     0.6716082     0.5646946     2.10000
Omg        O          0.8287838     0.5943705     0.5254930    -1.18080
Omg        O          0.8433187     0.6707717     0.5254930    -1.18080
Ohmg       O          0.7593393     0.6420516     0.5238095    -1.08090
Ob         O          0.7167037     0.6861077     0.5793651    -1.05000
Ob         O          0.8284608     0.6297827     0.5793651    -1.05000
Ob         O          0.8006830     0.7000496     0.5735931    -1.05000
H          H          0.7464194     0.6214176     0.5343915     0.42500
Al         Al         0.7286546     0.7627878     0.5000000     1.57500
Si         Si         0.7532024     0.7145491     0.5644541     2.10000
Si         Si         0.7564324     0.7968059     0.5646946     2.10000
Op         O          0.7470654     0.7192893     0.5254930    -1.05000
Omg        O          0.7612773     0.7956905     0.5254930    -1.18080
Ohmg       O          0.8439647     0.7672492     0.5238095    -1.08090
Ob         O          0.8013290     0.8110265     0.5793651    -1.05000
Ob         O          0.7467424     0.7547015     0.5793651    -1.05000
Ob         O          0.7189647     0.8249684     0.5735931    -1.05000
H          H          0.8310448     0.7463364     0.5343915     0.42500
Mgo        Mg         0.8126339     0.8043344     0.5000000     1.36000
Si         Si         0.7855021     0.6027356     0.4355459     2.10000
Si         Si         0.7848561     0.7705952     0.4353054     2.10000
Omg        O          0.7916391     0.5979954     0.4745070    -1.18080
Omg        O          0.7800112     0.7714317     0.4745070    -1.18080
Ohmg       O          0.8639905     0.8001519     0.4761905    -1.08090
Ob         O          0.9066262     0.7560957     0.4206349    -1.05000
Ob         O          0.7945461     0.8124207     0.4208754    -1.05000
Ob         O          0.8223238     0.7421539     0.4266474    -1.05000
H          H          0.8769104     0.8210646     0.4658490     0.42500
Al         Al         0.7280086     0.6794157     0.5000000     1.57500
Si         Si         0.8701274     0.7279332     0.4355459     2.10000
Si         Si         0.8668975     0.6456764     0.4353054     2.10000
Op         O          0.8762644     0.7229142     0.4745070    -1.05000
Omg        O          0.8620525     0.6465129     0.4745070    -1.18080
Ohmg       O          0.7793652     0.6752331     0.4761905    -1.08090
Ob         O          0.8220008     0.6311769     0.4206349    -1.05000
Ob         O          0.8765874     0.6875019     0.4208754    -1.05000
Ob         O          0.9043652     0.6172351     0.4266474    -1.05000
H          H          0.7922851     0.6958670     0.4658490     0.42500
Al         Al         0.9773626     0.6378690     0.5000000     1.57500
Si         Si         0.0019104     0.5893514     0.5644541     2.10000
Si         Si         0.0051404     0.6716082     0.5646946     2.10000
Op         O          0.9954504     0.5943705     0.5254930    -1.05000
Omg        O          0.0099853     0.6707717     0.5254930    -1.18080
Oh         O          0.9260060     0.6420516     0.5238095    -0.95000
Ob         O          0.8833703     0.6861077     0.5793651    -1.05000
Ob         O          0.9951274     0.6297827     0.5793651    -1.05000
Ob         O          0.9673497     0.7000496     0.5735931    -1.05000
H          H          0.9130861     0.6214176     0.5343915     0.42500
Al         Al         0.8953212     0.7627878     0.5000000     1.57500
Si         Si         0.9198691     0.7145491     0.5644541     2.10000
Si         Si         0.9230990     0.7968059     0.5646946     2.10000
Op         O          0.9137321     0.7192893     0.5254930    -1.05000
Op         O          0.9279440     0.7956905     0.5254930    -1.05000
Oh         O          0.0106313     0.7672492     0.5238095    -0.95000
Ob         O          0.9679957     0.8110265     0.5793651    -1.05000
Ob         O          0.9134091     0.7547015     0.5793651    -1.05000
Ob         O          0.8856313     0.8249684     0.5735931    -1.05000
H          H          0.9977114     0.7463364     0.5343915     0.42500
Al         Al         0.9793006     0.8043344     0.5000000     1.57500
Si         Si         0.9521688     0.6027356     0.4355459     2.10000
Si         Si         0.9515228     0.7705952     0.4353054     2.10000
Op         O          0.9583057     0.5979954     0.4745070    -1.05000
Op         O          0.9466778     0.7714317     0.4745070    -1.05000
Oh         O          0.0306572     0.8001519     0.4761905    -0.95000
Ob         O          0.0732928     0.7560957     0.4206349    -1.05000
Ob         O          0.9612127     0.8124207     0.4208754    -1.05000
Ob         O          0.9889905     0.7421539     0.4266474    -1.05000
H          H          0.0435771     0.8210646     0.4658490     0.42500
Al         Al         0.8946753     0.6794157     0.5000000     1.57500
Si         Si         0.0367941     0.7279332     0.4355459     2.10000
Si         Si         0.0335641     0.6456764     0.4353054     2.10000
Omg        O          0.0429311     0.7229142     0.4745070    -1.18080
Omg        O          0.0287192     0.6465129     0.4745070    -1.18080
Oh         O          0.9460318     0.6752331     0.4761905    -0.95000
Ob         O          0.9886675     0.6311769     0.4206349    -1.05000
Ob         O          0.0432541     0.6875019     0.4208754    -1.05000
Ob         O          0.0710318     0.6172351     0.4266474    -1.05000
H          H          0.9589517     0.6958670     0.4658490     0.42500
Al         Al         0.1466132     0.8879854     0.5000000     1.57500
Si         Si         0.1711610     0.8394679     0.5644541     2.10000
Si         Si         0.1743910     0.9217246     0.5646946     2.10000
Op         O          0.1650241     0.8442081     0.5254930    -1.05000
Op         O          0.1795590     0.9208881     0.5254930    -1.05000
Ohmg       O          0.0952566     0.8921680     0.5238095    -1.08090
Ob         O          0.0526210     0.9362241     0.5793651    -1.05000
Ob         O          0.1647011     0.8798992     0.5793651    -1.05000
Ob         O          0.1369233     0.9501660     0.5735931    -1.05000
H          H          0.0823368     0.8712552     0.5343915     0.42500
Al         Al         0.0648949     0.0129042     0.5000000     1.57500
Si         Si         0.0891197     0.9643866     0.5644541     2.10000
Si         Si         0.0926727     0.0466434     0.5646946     2.10000
Omg        O          0.0829827     0.9691269     0.5254930    -1.18080
Op         O          0.0975176     0.0458069     0.5254930    -1.05000
Oh         O          0.1802050     0.0170868     0.5238095    -0.95000
Ob         O          0.1372463     0.0611429     0.5793651    -1.05000
Ob         O          0.0826597     0.0048179     0.5793651    -1.05000
Ob         O          0.0548820     0.0750848     0.5735931    -1.05000
H          H          0.1672851     0.9964529     0.5343915     0.42500
Al         Al         0.1485512     0.0544509     0.5000000     1.57500
Si         Si         0.1214194     0.8528520     0.4355459     2.10000
Si         Si         0.1210964     0.0207116     0.4353054     2.10000
Op         O          0.1278794     0.8481118     0.4745070    -1.05000
Op         O          0.1159285     0.0215481     0.4745070    -1.05000
Oh         O          0.2002308     0.0502683     0.4761905    -0.95000
Ob         O          0.2428665     0.0062121     0.4206349    -1.05000
Ob         O          0.1307864     0.0625371     0.4208754    -1.05000
Ob         O          0.1585641     0.9922703     0.4266474    -1.05000
H          H          0.2128277     0.0709022     0.4658490     0.42500
Mgo        Mg         0.0639259     0.9292532     0.5000000     1.36000
Si         Si         0.2063678     0.9777708     0.4355459     2.10000
Si         Si         0.2028148     0.8955140     0.4353054     2.10000
Op         O          0.2125047     0.9730306     0.4745070    -1.05000
Op         O          0.1979698     0.8966294     0.4745070    -1.05000
Ohmg       O          0.1152825     0.9250707     0.4761905    -1.08090
Ob         O          0.1579181     0.8812933     0.4206349    -1.05000
Ob         O          0.2128277     0.9376183     0.4208754    -1.05000
Ob         O          0.2406055     0.8673515     0.4266474    -1.05000
H          H          0.1282024     0.9459834     0.4658490     0.42500
Mgo        Mg         0.3132799     0.8879854     0.5000000     1.36000
Si         Si         0.3378277     0.8394679     0.5644541     2.10000
Si         Si         0.3410577     0.9217246     0.5646946     2.10000
Omg        O          0.3316908     0.8442081     0.5254930    -1.18080
Omg        O          0.3462256     0.9208881     0.5254930    -1.18080
Ohmg       O          0.2619233     0.8921680     0.5238095    -1.08090
Ob         O          0.2192877     0.9362241     0.5793651    -1.05000
Ob         O          0.3313678     0.8798992     0.5793651    -1.05000
Ob         O          0.3035900     0.9501660     0.5735931    -1.05000
H          H          0.2490034     0.8712552     0.5343915     0.42500
Al         Al         0.2315616     0.0129042     0.5000000     1.57500
Si         Si         0.2557864     0.9643866     0.5644541     2.10000
Si         Si         0.2593393     0.0466434     0.5646946     2.10000
Op         O          0.2496494     0.9691269     0.5254930    -1.05000
Op         O          0.2641843     0.0458069     0.5254930    -1.05000
Oh         O          0.3468716     0.0170868     0.5238095    -0.95000
Ob         O          0.3039130     0.0611429     0.5793651    -1.05000
Ob         O          0.2493264     0.0048179     0.5793651    -1.05000
Ob         O          0.2215486     0.0750848     0.5735931    -1.05000
H          H          0.3339517     0.9964529     0.5343915     0.42500
Al         Al         0.3152179     0.0544509     0.5000000     1.57500
Si         Si         0.2880861     0.8528520     0.4355459     2.10000
Si         Si         0.2877631     0.0207116     0.4353054     2.10000
Omg        O          0.2945461     0.8481118     0.4745070    -1.18080
Op         O          0.2825951     0.0215481     0.4745070    -1.05000
Oh         O          0.3668975     0.0502683     0.4761905    -0.95000
Ob         O          0.4095331     0.0062121     0.4206349    -1.05000
Ob         O          0.2974530     0.0625371     0.4208754    -1.05000
Ob         O          0.3252308     0.9922703     0.4266474    -1.05000
H          H          0.3794944     0.0709022     0.4658490     0.42500
Al         Al         0.2305926     0.9292532     0.5000000     1.57500
Si         Si         0.3730344     0.9777708     0.4355459     2.10000
Si         Si         0.3694815     0.8955140     0.4353054     2.10000
Op         O          0.3791714     0.9730306     0.4745070    -1.05000
Omg        O          0.3646365     0.8966294     0.4745070    -1.18080
Ohmg       O          0.2819492     0.9250707     0.4761905    -1.08090
Ob         O          0.3245848     0.8812933     0.4206349    -1.05000
Ob         O          0.3794944     0.9376183     0.4208754    -1.05000
Ob         O          0.4072722     0.8673515     0.4266474    -1.05000
H          H          0.2948691     0.9459834     0.4658490     0.42500
Al         Al         0.4799466     0.8879854     0.5000000     1.57500
Si         Si         0.5044944     0.8394679     0.5644541     2.10000
Si         Si         0.5077243     0.9217246     0.5646946     2.10000
Op         O          0.4983574     0.8442081     0.5254930    -1.05000
Omg        O          0.5128923     0.9208881     0.5254930    -1.18080
Oh         O          0.4285900     0.8921680     0.5238095    -0.95000
Ob         O          0.3859543     0.9362241     0.5793651    -1.05000
Ob         O          0.4980344     0.8798992     0.5793651    -1.05000
Ob         O          0.4702566     0.9501660     0.5735931    -1.05000
H          H          0.4156701     0.8712552     0.5343915     0.42500
Al         Al         0.3982282     0.0129042     0.5000000     1.57500
Si         Si         0.4224530     0.9643866     0.5644541     2.10000
Si         Si         0.4260060     0.0466434     0.5646946     2.10000
Op         O          0.4163161     0.9691269     0.5254930    -1.05000
Op         O          0.4308510     0.0458069     0.5254930    -1.05000
Oh         O          0.5135383     0.0170868     0.5238095    -0.95000
Ob         O          0.4705796     0.0611429     0.5793651    -1.05000
Ob         O          0.4159931     0.0048179     0.5793651    -1.05000
Ob         O          0.3882153     0.0750848     0.5735931    -1.05000
H          H          0.5006184     0.9964529     0.5343915     0.42500
Al         Al         0.4818846     0.0544509     0.5000000     1.57500
Si         Si         0.4547528     0.8528520     0.4355459     2.10000
Si         Si         0.4544298     0.0207116     0.4353054     2.10000
Op         O          0.4612127     0.8481118     0.4745070    -1.05000
Op         O          0.4492618     0.0215481     0.4745070    -1.05000
Oh         O          0.5335641     0.0502683     0.4761905    -0.95000
Ob         O          0.5761998     0.0062121     0.4206349    -1.05000
Ob         O          0.4641197     0.0625371     0.4208754    -1.05000
Ob         O          0.4918975     0.9922703     0.4266474    -1.05000
H          H          0.5461610     0.0709022     0.4658490     0.42500
Al         Al         0.3972592     0.9292532     0.5000000     1.57500
Si         Si         0.5397011     0.9777708     0.4355459     2.10000
Si         Si         0.5361481     0.8955140     0.4353054     2.10000
Omg        O          0.5458380     0.9730306     0.4745070    -1.18080
Omg        O          0.5313032     0.8966294     0.4745070    -1.18080
Oh         O          0.4486158     0.9250707     0.4761905    -0.95000
Ob         O          0.4912515     0.8812933     0.4206349    -1.05000
Ob         O          0.5461610     0.9376183     0.4208754    -1.05000
Ob         O          0.5739388     0.8673515     0.4266474    -1.05000
H          H          0.4615357     0.9459834     0.4658490     0.42500
Al         Al         0.6466132     0.8879854     0.5000000     1.57500
Si         Si         0.6711610     0.8394679     0.5644541     2.10000
Si         Si         0.6743910     0.9217246     0.5646946     2.10000
Op         O          0.6650241     0.8442081     0.5254930    -1.05000
Op         O          0.6795590     0.9208881     0.5254930    -1.05000
Ohmg       O          0.5952566     0.8921680     0.5238095    -1.08090
Ob         O          0.5526210     0.9362241     0.5793651    -1.05000
Ob         O          0.6647011     0.8798992     0.5793651    -1.05000
Ob         O          0.6369233     0.9501660     0.5735931    -1.05000
H          H          0.5823368     0.8712552     0.5343915     0.42500
Al         Al         0.5648949     0.0129042     0.5000000     1.57500
Si         Si         0.5891197     0.9643866     0.5644541     2.10000
Si         Si         0.5926727     0.0466434     0.5646946     2.10000
Omg        O          0.5829827     0.9691269     0.5254930    -1.18080
Op         O          0.5975176     0.0458069     0.5254930    -1.05000
Ohmg       O          0.6802050     0.0170868     0.5238095    -1.08090
Ob         O          0.6372463     0.0611429     0.5793651    -1.05000
Ob         O          0.5826597     0.0048179     0.5793651    -1.05000
Ob         O          0.5548820     0.0750848     0.5735931    -1.05000
H          H          0.6672851     0.9964529     0.5343915     0.42500
Al         Al         0.6485512     0.0544509     0.5000000     1.57500
Si         Si         0.6214194     0.8528520     0.4355459     2.10000
Si         Si         0.6210964     0.0207116     0.4353054     2.10000
Op         O          0.6278794     0.8481118     0.4745070    -1.05000
Op         O          0.6159285     0.0215481     0.4745070    -1.05000
Ohmg       O          0.7002308     0.0502683     0.4761905    -1.08090
Ob         O          0.7428665     0.0062121     0.4206349    -1.05000
Ob         O          0.6307864     0.0625371     0.4208754    -1.05000
Ob         O          0.6585641     0.9922703     0.4266474    -1.05000
H          H          0.7128277     0.0709022     0.4658490     0.42500
Mgo        Mg         0.5639259     0.9292532     0.5000000     1.36000
Si         Si         0.7063678     0.9777708     0.4355459     2.10000
Si         Si         0.7028148     0.8955140     0.4353054     2.10000
Omg        O          0.7125047     0.9730306     0.4745070    -1.18080
Op         O          0.6979698     0.8966294     0.4745070    -1.05000
Ohmg       O          0.6152825     0.9250707     0.4761905    -1.08090
Ob         O          0.6579181     0.8812933     0.4206349    -1.05000
Ob         O          0.7128277     0.9376183     0.4208754    -1.05000
Ob         O          0.7406055     0.8673515     0.4266474    -1.05000
H          H          0.6282024     0.9459834     0.4658490     0.42500
Al         Al         0.8132799     0.8879854     0.5000000     1.57500
Si         Si         0.8378277     0.8394679     0.5644541     2.10000
Si         Si         0.8410577     0.9217246     0.5646946     2.10000
Omg        O          0.8316908     0.8442081     0.5254930    -1.18080
Op         O          0.8462256     0.9208881     0.5254930    -1.05000
Oh         O          0.7619233     0.8921680     0.5238095    -0.95000
Ob         O          0.7192877     0.9362241     0.5793651    -1.05000
Ob         O          0.8313678     0.8798992     0.5793651    -1.05000
Ob         O          0.8035900     0.9501660     0.5735931    -1.05000
H          H          0.7490034     0.8712552     0.5343915     0.42500
Mgo        Mg         0.7315616     0.0129042     0.5000000     1.36000
Si         Si         0.7557864     0.9643866     0.5644541     2.10000
Si         Si         0.7593393     0.0466434     0.5646946     2.10000
Omg        O          0.7496494     0.9691269     0.5254930    -1.18080
Omg        O          0.7641843     0.0458069     0.5254930    -1.18080
Oh         O          0.8468716     0.0170868     0.5238095    -0.95000
Ob         O          0.8039130     0.0611429     0.5793651    -1.05000
Ob         O          0.7493264     0.0048179     0.5793651    -1.05000
Ob         O          0.7215486     0.0750848     0.5735931    -1.05000
H          H          0.8339517     0.9964529     0.5343915     0.42500
Al         Al         0.8152179     0.0544509     0.5000000     1.57500
Si         Si         0.7880861     0.8528520     0.4355459     2.10000
Si         Si         0.7877631     0.0207116     0.4353054     2.10000
Omg        O          0.7945461     0.8481118     0.4745070    -1.18080
Omg        O          0.7825951     0.0215481     0.4745070    -1.18080
Oh         O          0.8668975     0.0502683     0.4761905    -0.95000
Ob         O          0.9095331     0.0062121     0.4206349    -1.05000
Ob         O          0.7974530     0.0625371     0.4208754    -1.05000
Ob         O          0.8252308     0.9922703     0.4266474    -1.05000
H          H          0.8794944     0.0709022     0.4658490     0.42500
Al         Al         0.7305926     0.9292532     0.5000000     1.57500
Si         Si         0.8730344     0.9777708     0.4355459     2.10000
Si         Si         0.8694815     0.8955140     0.4353054     2.10000
Op         O          0.8791714     0.9730306     0.4745070    -1.05000
Op         O          0.8646365     0.8966294     0.4745070    -1.05000
Oh         O          0.7819492     0.9250707     0.4761905    -0.95000
Ob         O          0.8245848     0.8812933     0.4206349    -1.05000
Ob         O          0.8794944     0.9376183     0.4208754    -1.05000
Ob         O          0.9072722     0.8673515     0.4266474    -1.05000
H          H          0.7948691     0.9459834     0.4658490     0.42500
Al         Al         0.9799466     0.8879854     0.5000000     1.57500
Si         Si         0.0044944     0.8394679     0.5644541     2.10000
Si         Si         0.0077243     0.9217246     0.5646946     2.10000
Op         O          0.9983574     0.8442081     0.5254930    -1.05000
Omg        O          0.0128923     0.9208881     0.5254930    -1.18080
Oh         O          0.9285900     0.8921680     0.5238095    -0.95000
Ob         O          0.8859543     0.9362241     0.5793651    -1.05000
Ob         O          0.9980344     0.8798992     0.5793651    -1.05000
Ob         O          0.9702566     0.9501660     0.5735931    -1.05000
H          H          0.9156701     0.8712552     0.5343915     0.42500
Al         Al         0.8982282     0.0129042     0.5000000     1.57500
Si         Si         0.9224530     0.9643866     0.5644541     2.10000
Si         Si         0.9260060     0.0466434     0.5646946     2.10000
Op         O          0.9163161     0.9691269     0.5254930    -1.05000
Op         O          0.9308510     0.0458069     0.5254930    -1.05000
Oh         O          0.0135383     0.0170868     0.5238095    -0.95000
Ob         O          0.9705796     0.0611429     0.5793651    -1.05000
Ob         O          0.9159931     0.0048179     0.5793651    -1.05000
Ob         O          0.8882153     0.0750848     0.5735931    -1.05000
H          H          0.0006184     0.9964529     0.5343915     0.42500
Al         Al         0.9818846     0.0544509     0.5000000     1.57500
Si         Si         0.9547528     0.8528520     0.4355459     2.10000
Si         Si         0.9544298     0.0207116     0.4353054     2.10000
Op         O          0.9612127     0.8481118     0.4745070    -1.05000
Op         O          0.9492618     0.0215481     0.4745070    -1.05000
Oh         O          0.0335641     0.0502683     0.4761905    -0.95000
Ob         O          0.0761998     0.0062121     0.4206349    -1.05000
Ob         O          0.9641197     0.0625371     0.4208754    -1.05000
Ob         O          0.9918975     0.9922703     0.4266474    -1.05000
H          H          0.0461610     0.0709022     0.4658490     0.42500
Al         Al         0.8972592     0.9292532     0.5000000     1.57500
Si         Si         0.0397011     0.9777708     0.4355459     2.10000
Si         Si         0.0361481     0.8955140     0.4353054     2.10000
Omg        O          0.0458380     0.9730306     0.4745070    -1.18080
Omg        O          0.0313032     0.8966294     0.4745070    -1.18080
Oh         O          0.9486158     0.9250707     0.4761905    -0.95000
Ob         O          0.9912515     0.8812933     0.4206349    -1.05000
Ob         O          0.0461610     0.9376183     0.4208754    -1.05000
Ob         O          0.0739388     0.8673515     0.4266474    -1.05000
H          H          0.9615357     0.9459834     0.4658490     0.42500
Na         Na         0.0320762     0.2047710     0.3193557     1.00000
Na         Na         0.6167708     0.1591378     0.1522002     1.00000
Na         Na         0.6419028     0.9557434     0.3126941     1.00000
Na         Na         0.9179342     0.9447912     0.2998783     1.00000
Na         Na         0.1791119     0.7651891     0.3155549     1.00000
Na         Na         0.6446591     0.3955869     0.3300644     1.00000
Na         Na         0.9208499     0.0197993     0.2948983     1.00000
Na         Na         0.0357728     0.5364454     0.1556608     1.00000
Na         Na         0.8891423     0.6241811     0.3285704     1.00000
Na         Na         0.4654710     0.5319552     0.3182403     1.00000
Na         Na         0.8882817     0.7387252     0.1706758     1.00000
Na         Na         0.8472842     0.3425478     0.1944236     1.00000
Na         Na         0.9211437     0.1543406     0.1861912     1.00000
Na         Na         0.4099974     0.9245922     0.3011334     1.00000
Na         Na         0.4126333     0.5397638     0.1617398     1.00000
Na         Na         0.4824329     0.0062370     0.2989660     1.00000
Na         Na         0.1874291     0.1586465     0.8109572     1.00000
Na         Na         0.0420652     0.1867590     0.6689307     1.00000
Na         Na         0.4622933     0.9262388     0.8218690     1.00000
Na         Na         0.7162171     0.3738378     0.8348719     1.00000
Na         Na         0.6785876     0.1935716     0.8355910     1.00000
Na         Na         0.4324336     0.7375101     0.6853189     1.00000
Na         Na         0.2344219     0.4023148     0.6867419     1.00000
Na         Na         0.8714790     0.1538025     0.6712823     1.00000
Na         Na         0.1817988     0.9206608     0.8265989     1.00000
Na         Na         0.8617372     0.9263352     0.8090882     1.00000
Na         Na         0.7205625     0.0211046     0.8366269     1.00000
Na         Na         0.8860349     0.1718438     0.8313622     1.00000
Na         Na         0.4874430     0.3516371     0.8279385     1.00000
Na         Na         0.6214294     0.5790784     0.6713961     1.00000
Na         Na         0.4987412     0.7340206     0.8542647     1.00000
Na         Na         0.6233642     0.0157048     0.6857361     1.00000
Ow         O          0.0910265     0.0773138     0.2293498    -0.84760
Hw         H          0.1013037     0.0730045     0.2494643     0.42380
Hw         H          0.0651868     0.0659068     0.2267261     0.42380
Ow         O          0.0305379     0.1008881     0.1530456    -0.84760
Hw         H          0.0064599     0.1117881     0.1615724     0.42380
Hw         H          0.0223162     0.0823835     0.1392715     0.42380
Ow         O          0.1920366     0.3308016     0.2662994    -0.84760
Hw         H          0.1647287     0.3290272     0.2582098     0.42380
Hw         H          0.1952666     0.3533620     0.2759194     0.42380
Ow         O          0.5367630     0.1642601     0.1987407    -0.84760
Hw         H          0.5464529     0.1880879     0.1987407     0.42380
Hw         H          0.5517383     0.1505718     0.2131707     0.42380
Ow         O          0.3582335     0.1858066     0.1683502    -0.84760
Hw         H          0.3749706     0.2055786     0.1628843     0.42380
Hw         H          0.3406155     0.1923972     0.1849665     0.42380
Ow         O          0.2504698     0.2975947     0.2352530    -0.84760
Hw         H          0.2275664     0.3019040     0.2483712     0.42380
Hw         H          0.2604534     0.3196481     0.2273820     0.42380
Ow         O          0.2260982     0.2641343     0.1569811    -0.84760
Hw         H          0.2463589     0.2600785     0.1722856     0.42380
Hw         H          0.2046629     0.2785831     0.1652893     0.42380
Ow         O          0.1233263     0.3713596     0.2435612    -0.84760
Hw         H          0.1004228     0.3635015     0.2319734     0.42380
Hw         H          0.1403571     0.3860619     0.2310989     0.42380
Ow         O          0.4536646     0.3891038     0.3043421    -0.84760
Hw         H          0.4607118     0.4129316     0.3100267     0.42380
Hw         H          0.4489664     0.3754154     0.3222703     0.42380
Ow         O          0.1535706     0.1069719     0.3393240    -0.84760
Hw         H          0.1776486     0.0927765     0.3412917     0.42380
Hw         H          0.1297862     0.0922696     0.3401985     0.42380
Ow         O          0.4956542     0.1209137     0.1727229    -0.84760
Hw         H          0.4739253     0.1325741     0.1617911     0.42380
Hw         H          0.5106296     0.1381509     0.1843106     0.42380
Ow         O          0.3558844     0.3475318     0.3810836    -0.84760
Hw         H          0.3696852     0.3475318     0.4003236     0.42380
Hw         H          0.3417900     0.3254783     0.3786786     0.42380
Ow         O          0.0924947     0.3711061     0.1292142    -0.84760
Hw         H          0.0848602     0.3954410     0.1292142     0.42380
Hw         H          0.0716467     0.3574178     0.1390529     0.42380
Ow         O          0.0954311     0.2841598     0.2052998    -0.84760
Hw         H          0.0995419     0.2628669     0.2166689     0.42380
Hw         H          0.0792812     0.3003830     0.2173248     0.42380
Ow         O          0.2070120     0.4603338     0.3262058    -0.84760
Hw         H          0.1799977     0.4560246     0.3338581     0.42380
Hw         H          0.2152337     0.4836547     0.3318903     0.42380
Ow         O          0.0607822     0.1705973     0.1346801    -0.84760
Hw         H          0.0475687     0.1482904     0.1383970     0.42380
Hw         H          0.0604886     0.1842856     0.1530456     0.42380
Ow         O          0.5209067     0.2413204     0.1453933    -0.84760
Hw         H          0.5488020     0.2339692     0.1471424     0.42380
Hw         H          0.5185577     0.2577971     0.1289956     0.42380
Ow         O          0.5068123     0.2884691     0.1060387    -0.84760
Hw         H          0.5320648     0.2889761     0.0946696     0.42380
Hw         H          0.5109232     0.3003830     0.1252788     0.42380
Ow         O          0.2049565     0.3536155     0.1703179    -0.84760
Hw         H          0.1905685     0.3315620     0.1722856     0.42380
Hw         H          0.1982030     0.3645155     0.1512965     0.42380
Ow         O          0.0828048     0.2550087     0.2879444    -0.84760
Hw         H          0.1089382     0.2436018     0.2848835     0.42380
Hw         H          0.0613695     0.2385320     0.2837903     0.42380
Ow         O          0.3735025     0.4618548     0.3649045    -0.84760
Hw         H          0.3805497     0.4770640     0.3482881     0.42380
Hw         H          0.3755579     0.4377734     0.3583454     0.42380
Ow         O          0.4554264     0.3667968     0.2199484    -0.84760
Hw         H          0.4381019     0.3683178     0.2374393     0.42380
Hw         H          0.4510218     0.3444899     0.2098911     0.42380
Ow         O          0.2619215     0.1609648     0.3318903    -0.84760
Hw         H          0.2481207     0.1602043     0.3513490     0.42380
Hw         H          0.2469462     0.1470229     0.3174603     0.42380
Ow         O          0.4342847     0.1264904     0.3775854    -0.84760
Hw         H          0.4284120     0.1373904     0.3968254     0.42380
Hw         H          0.4571882     0.1107742     0.3795531     0.42380
Ow         O          0.3106648     0.2332088     0.3552844    -0.84760
Hw         H          0.3241720     0.2119158     0.3489440     0.42380
Hw         H          0.2942213     0.2418274     0.3388867     0.42380
Ow         O          0.0472751     0.2131832     0.1840920    -0.84760
Hw         H          0.0763448     0.2101414     0.1860597     0.42380
Hw         H          0.0402279     0.2372646     0.1886834     0.42380
Ow         O          0.0631313     0.4692059     0.3550658    -0.84760
Hw         H          0.0601950     0.4654036     0.3767108     0.42380
Hw         H          0.0378788     0.4783315     0.3471949     0.42380
Ow         O          0.1864576     0.0572882     0.2050811    -0.84760
Hw         H          0.1849894     0.0560208     0.2269448     0.42380
Hw         H          0.1870449     0.0816231     0.1987407     0.42380
Ow         O          0.1280244     0.4641362     0.1980847    -0.84760
Hw         H          0.1427061     0.4423362     0.1993966     0.42380
Hw         H          0.1471106     0.4836547     0.1974288     0.42380
Ow         O          0.5520319     0.2778226     0.2024575    -0.84760
Hw         H          0.5338266     0.2740203     0.1858411     0.42380
Hw         H          0.5367630     0.2806110     0.2210416     0.42380
Ow         O          0.3852478     0.4005107     0.3408544    -0.84760
Hw         H          0.3870096     0.3809922     0.3548472     0.42380
Hw         H          0.3699789     0.3939200     0.3233635     0.42380
Ow         O          0.4530773     0.1939182     0.1707552    -0.84760
Hw         H          0.4516091     0.1774415     0.1871529     0.42380
Hw         H          0.4765680     0.2088739     0.1735974     0.42380
Ow         O          0.0980738     0.4600804     0.2829157    -0.84760
Hw         H          0.1148109     0.4436037     0.2938476     0.42380
Hw         H          0.0933756     0.4517153     0.2625825     0.42380
Ow         O          0.1371271     0.1850461     0.1165333    -0.84760
Hw         H          0.1503406     0.1622322     0.1158774     0.42380
Hw         H          0.1095255     0.1822577     0.1237483     0.42380
Ow         O          0.2857059     0.3913852     0.2728585    -0.84760
Hw         H          0.2789523     0.3850480     0.2523066     0.42380
Hw         H          0.3036176     0.3738945     0.2813853     0.42380
Ow         O          0.4216584     0.1571624     0.3248940    -0.84760
Hw         H          0.4298802     0.1462625     0.3434781     0.42380
Hw         H          0.4289993     0.1814973     0.3251126     0.42380
Ow         O          0.2607470     0.3629945     0.2136079    -0.84760
Hw         H          0.2871741     0.3665434     0.2044252     0.42380
Hw         H          0.2398990     0.3635015     0.1980847     0.42380
Ow         O          0.2956895     0.1351090     0.2081420    -0.84760
Hw         H          0.2883486     0.1328276     0.1871529     0.42380
Hw         H          0.3097839     0.1143230     0.2149198     0.42380
Ow         O          0.1832276     0.0238279     0.1235297    -0.84760
Hw         H          0.1594433     0.0240813     0.1362106     0.42380
Hw         H          0.1841085     0.0448673     0.1115047     0.42380
Ow         O          0.3409091     0.1807368     0.3316717    -0.84760
Hw         H          0.3174184     0.1652740     0.3323276     0.42380
Hw         H          0.3646934     0.1673019     0.3264244     0.42380
Ow         O          0.3852478     0.4055805     0.1849665    -0.84760
Hw         H          0.3914141     0.4243386     0.1707552     0.42380
Hw         H          0.4052149     0.4055805     0.2009270     0.42380
Ow         O          0.3981677     0.4631222     0.1408020    -0.84760
Hw         H          0.4110876     0.4793454     0.1268092     0.42380
Hw         H          0.3834860     0.4763036     0.1561065     0.42380
Ow         O          0.2792459     0.1226881     0.1519524    -0.84760
Hw         H          0.2698497     0.1409392     0.1383970     0.42380
Hw         H          0.2862932     0.1021556     0.1403647     0.42380
Ow         O          0.3235847     0.0174907     0.1762211    -0.84760
Hw         H          0.3024430     0.0187581     0.1611352     0.42380
Hw         H          0.3165375    -0.0000000     0.1913070     0.42380
Ow         O          0.4445619     0.3049458     0.2011457    -0.84760
Hw         H          0.4284120     0.2836529     0.1996152     0.42380
Hw         H          0.4521964     0.3122970     0.1810311     0.42380
Ow         O          0.5135659     0.3320690     0.1552320    -0.84760
Hw         H          0.5426357     0.3340969     0.1582929     0.42380
Hw         H          0.5003524     0.3533620     0.1620097     0.42380
Ow         O          0.5399930     0.3176202     0.3587826    -0.84760
Hw         H          0.5667136     0.3077342     0.3559404     0.42380
Hw         H          0.5423420     0.3419550     0.3640299     0.42380
Ow         O          0.3373855     0.3490527     0.3045608    -0.84760
Hw         H          0.3138948     0.3432225     0.3165858     0.42380
Hw         H          0.3617571     0.3424620     0.3152740     0.42380
Ow         O          0.5059314     0.2861877     0.2474966    -0.84760
Hw         H          0.5073996     0.3067202     0.2603962     0.42380
Hw         H          0.4806789     0.2866947     0.2363461     0.42380
Ow         O          0.2936340     0.0301650     0.3181162    -0.84760
Hw         H          0.3009749     0.0250953     0.2973458     0.42380
Hw         H          0.3147757     0.0443604     0.3272990     0.42380
Ow         O          0.1453488     0.2136902     0.2851021    -0.84760
Hw         H          0.1706014     0.2167321     0.2960339     0.42380
Hw         H          0.1330162     0.1916368     0.2910053     0.42380
Ow         O          0.3990486     0.1054509     0.2875071    -0.84760
Hw         H          0.4052149     0.1242090     0.3014998     0.42380
Hw         H          0.3729152     0.1097602     0.2781057     0.42380
Ow         O          0.0437515     0.4040596     0.3025930    -0.84760
Hw         H          0.0302443     0.4248456     0.2951594     0.42380
Hw         H          0.0725276     0.4088758     0.3045608     0.42380
Ow         O          0.1911557     0.1437276     0.2007084    -0.84760
Hw         H          0.1946794     0.1604578     0.1845293     0.42380
Hw         H          0.2046629     0.1523462     0.2188552     0.42380
Ow         O          0.1289053     0.3903712     0.3021558    -0.84760
Hw         H          0.1227390     0.3792178     0.2831344     0.42380
Hw         H          0.1573878     0.3969619     0.3028117     0.42380
Ow         O          0.1429998     0.1979740     0.3609690    -0.84760
Hw         H          0.1629669     0.2119158     0.3506931     0.42380
Hw         H          0.1547451     0.1756670     0.3668722     0.42380
Ow         O          0.4909561     0.2050716     0.3767108    -0.84760
Hw         H          0.4639417     0.2147042     0.3756176     0.42380
Hw         H          0.5085741     0.2169856     0.3624995     0.42380
Ow         O          0.1151045     0.0615975     0.2807294    -0.84760
Hw         H          0.1083510     0.0709766     0.3004067     0.42380
Hw         H          0.1062955     0.0375162     0.2794176     0.42380
Ow         O          0.0358233     0.3396737     0.2918798    -0.84760
Hw         H          0.0513860     0.3272528     0.3067471     0.42380
Hw         H          0.0422833     0.3645155     0.2929730     0.42380
Ow         O          0.2398990     0.1683159     0.2442171    -0.84760
Hw         H          0.2572234     0.1617252     0.2276007     0.42380
Hw         H          0.2316772     0.1926507     0.2418121     0.42380
Ow         O          0.3253465     0.2017763     0.2227907    -0.84760
Hw         H          0.3297510     0.2070995     0.2437798     0.42380
Hw         H          0.3165375     0.1776949     0.2208229     0.42380
Ow         O          0.0240780     0.3923991     0.3624995    -0.84760
Hw         H          0.0281889     0.3992433     0.3417290     0.42380
Hw         H          0.0484496     0.3979758     0.3740872     0.42380
Ow         O          0.3385600     0.3455039     0.1972102    -0.84760
Hw         H          0.3406155     0.3242109     0.1851852     0.42380
Hw         H          0.3567653     0.3629945     0.1893393     0.42380
Ow         O          0.1245008     0.1366299     0.2315361    -0.84760
Hw         H          0.1092319     0.1155904     0.2278193     0.42380
Hw         H          0.1471106     0.1378974     0.2175434     0.42380
Ow         O          0.3655743     0.0600766     0.3345140    -0.84760
Hw         H          0.3655743     0.0762998     0.3513490     0.42380
Hw         H          0.3737961     0.0722440     0.3163671     0.42380
Ow         O          0.0507987     0.4641362     0.2142639    -0.84760
Hw         H          0.0384661     0.4423362     0.2083607     0.42380
Hw         H          0.0784003     0.4648966     0.2068302     0.42380
Ow         O          0.3191802     0.2093809     0.2822598    -0.84760
Hw         H          0.3312192     0.2012693     0.3010626     0.42380
Hw         H          0.2909913     0.2025368     0.2816039     0.42380
Ow         O          0.0367043     0.1455020     0.2551489    -0.84760
Hw         H          0.0616631     0.1371369     0.2461848     0.42380
Hw         H          0.0405215     0.1493043     0.2765753     0.42380
Ow         O          0.4269439     0.2484180     0.3745245    -0.84760
Hw         H          0.4383956     0.2709785     0.3788972     0.42380
Hw         H          0.4298802     0.2433483     0.3533167     0.42380
Ow         O          0.5115105     0.1607113     0.2752635    -0.84760
Hw         H          0.5003524     0.1432206     0.2888189     0.42380
Hw         H          0.5355884     0.1515857     0.2656434     0.42380
Ow         O          0.2219873     0.1252230     0.2890376    -0.84760
Hw         H          0.2120038     0.1026626     0.2824785     0.42380
Hw         H          0.2296218     0.1389113     0.2715466     0.42380
Ow         O          0.2980385     0.4329572     0.3318903    -0.84760
Hw         H          0.2909913     0.4283944     0.3111199     0.42380
Hw         H          0.3068475     0.4567850     0.3340767     0.42380
Ow         O          0.0716467     0.2958203     0.3321090    -0.84760
Hw         H          0.0781066     0.2803575     0.3487253     0.42380
Hw         H          0.0745830     0.2833994     0.3133062     0.42380
Ow         O          0.4204839     0.2760482     0.2813853    -0.84760
Hw         H          0.4275311     0.2600785     0.2652062     0.42380
Hw         H          0.3940568     0.2861877     0.2774498     0.42380
Ow         O          0.3925887     0.4463920     0.2582098    -0.84760
Hw         H          0.4172539     0.4476595     0.2464034     0.42380
Hw         H          0.3858351     0.4220572     0.2621453     0.42380
Ow         O          0.0493305     0.3264923     0.2350343    -0.84760
Hw         H          0.0478623     0.3262388     0.2568980     0.42380
Hw         H          0.0249589     0.3160993     0.2267261     0.42380
Ow         O          0.5317712     0.0418255     0.1259347    -0.84760
Hw         H          0.5532065     0.0375162     0.1112860     0.42380
Hw         H          0.5226685     0.0197720     0.1342429     0.42380
Ow         O          0.4325229     0.4063409     0.1158774    -0.84760
Hw         H          0.4521964     0.4093828     0.0996983     0.42380
Hw         H          0.4207775     0.4289014     0.1209060     0.42380
Ow         O          0.4008104     0.2425878     0.1585115    -0.84760
Hw         H          0.4184285     0.2220553     0.1589488     0.42380
Hw         H          0.4125558     0.2600785     0.1453933     0.42380
Ow         O          0.2686751     0.3302946     0.3224890    -0.84760
Hw         H          0.2672070     0.3386597     0.3432594     0.42380
Hw         H          0.2434226     0.3351109     0.3124317     0.42380
Ow         O          0.5655391     0.0519650     0.2221348    -0.84760
Hw         H          0.5769908     0.0304185     0.2142639     0.42380
Hw         H          0.5367630     0.0524720     0.2179807     0.42380
Ow         O          0.1021846     0.0902417     0.1690061    -0.84760
Hw         H          0.0789875     0.1031695     0.1615724     0.42380
Hw         H          0.0995419     0.0864393     0.1904325     0.42380
Ow         O          0.1341907     0.3340969     0.3373562    -0.84760
Hw         H          0.1303735     0.3576713     0.3299226     0.42380
Hw         H          0.1095255     0.3209156     0.3345140     0.42380
Ow         O          0.4988842     0.3351109     0.2934103    -0.84760
Hw         H          0.5165022     0.3358713     0.3109012     0.42380
Hw         H          0.4768616     0.3513341     0.2962526     0.42380
Ow         O          0.3300446     0.2859342     0.1637588    -0.84760
Hw         H          0.3094903     0.2740203     0.1755652     0.42380
Hw         H          0.3473690     0.2686971     0.1543574     0.42380
Ow         O          0.3227038     0.0674278     0.2238839    -0.84760
Hw         H          0.3203547     0.0583022     0.2035507     0.42380
Hw         H          0.3221165     0.0481627     0.2380952     0.42380
Ow         O          0.5267794     0.1051974     0.3135249    -0.84760
Hw         H          0.5482147     0.1226881     0.3143994     0.42380
Hw         H          0.5350012     0.0861859     0.3006253     0.42380
Ow         O          0.2222809     0.0590627     0.3371376    -0.84760
Hw         H          0.2487080     0.0550069     0.3283921     0.42380
Hw         H          0.2246300     0.0603301     0.3587826     0.42380
Ow         O          0.2049565     0.2210414     0.3244567    -0.84760
Hw         H          0.2214000     0.2415739     0.3207399     0.42380
Hw         H          0.2222809     0.2007623     0.3251126     0.42380
Ow         O          0.1394762     0.4489269     0.3526608    -0.84760
Hw         H          0.1127555     0.4593199     0.3522235     0.42380
Hw         H          0.1374207     0.4250990     0.3596572     0.42380
Ow         O          0.5165022     0.2314344     0.2857580    -0.84760
Hw         H          0.5085741     0.2088739     0.2776685     0.42380
Hw         H          0.5167959     0.2486715     0.2697975     0.42380
Ow         O          0.5329457     0.2443622     0.3432594    -0.84760
Hw         H          0.5441038     0.2674296     0.3465390     0.42380
Hw         H          0.5305967     0.2400529     0.3216144     0.42380
Ow         O          0.2190510     0.4613478     0.2199484    -0.84760
Hw         H          0.2055438     0.4836547     0.2171061     0.42380
Hw         H          0.2481207     0.4643897     0.2184179     0.42380
Ow         O          0.4383956     0.4768106     0.3876427    -0.84760
Hw         H          0.4102067     0.4740222     0.3817395     0.42380
Hw         H          0.4548391     0.4598269     0.3771481     0.42380
Ow         O          0.2771905     0.2499390     0.1998338    -0.84760
Hw         H          0.2930467     0.2324483     0.2103284     0.42380
Hw         H          0.2677942     0.2674296     0.2142639     0.42380
Ow         O          0.0246653     0.4053270     0.1976475    -0.84760
Hw         H          0.0038172     0.4022851     0.1823429     0.42380
Hw         H          0.0249589     0.3853015     0.2107657     0.42380
Ow         O          0.0481560     0.3219295     0.1543574    -0.84760
Hw         H          0.0478623     0.3100156     0.1735974     0.42380
Hw         H          0.0722340     0.3148319     0.1432070     0.42380
Ow         O          0.2222809     0.3602062     0.3666535    -0.84760
Hw         H          0.1993775     0.3475318     0.3749617     0.42380
Hw         H          0.2214000     0.3842875     0.3734313     0.42380
Ow         O          0.5605473     0.0562743     0.2798548    -0.84760
Hw         H          0.5593728     0.0334604     0.2894748     0.42380
Hw         H          0.5614282     0.0534859     0.2582098     0.42380
Ow         O          0.5256049     0.3845410     0.2529625    -0.84760
Hw         H          0.4982969     0.3782038     0.2470593     0.42380
Hw         H          0.5332394     0.3718666     0.2708907     0.42380
Ow         O          0.1180409     0.1462625     0.2914426    -0.84760
Hw         H          0.1291990     0.1313067     0.3071844     0.42380
Hw         H          0.1297862     0.1396718     0.2722025     0.42380
Ow         O          0.3188865     0.4882175     0.2638944    -0.84760
Hw         H          0.3003876     0.4699664     0.2571166     0.42380
Hw         H          0.3461945     0.4790919     0.2638944     0.42380
Ow         O          0.2064247     0.4048200     0.2923171    -0.84760
Hw         H          0.2049565     0.4256060     0.3047794     0.42380
Hw         H          0.2325581     0.4040596     0.2824785     0.42380
Ow         O          0.2818887     0.4248456     0.0852683    -0.84760
Hw         H          0.2592788     0.4159735     0.0734619     0.42380
Hw         H          0.2724924     0.4428432     0.0988237     0.42380
Ow         O          0.6377731     0.0773138     0.2293498    -0.84760
Hw         H          0.6480503     0.0730045     0.2494643     0.42380
Hw         H          0.6119333     0.0659068     0.2267261     0.42380
Ow         O          0.7387832     0.3308016     0.2662994    -0.84760
Hw         H          0.7114752     0.3290272     0.2582098     0.42380
Hw         H          0.7420132     0.3533620     0.2759194     0.42380
Ow         O          0.7972163     0.2975947     0.2352530    -0.84760
Hw         H          0.7743129     0.3019040     0.2483712     0.42380
Hw         H          0.8071999     0.3196481     0.2273820     0.42380
Ow         O          0.7728447     0.2641343     0.1569811    -0.84760
Hw         H          0.7931055     0.2600785     0.1722856     0.42380
Hw         H          0.7514094     0.2785831     0.1652893     0.42380
Ow         O          0.6700728     0.3713596     0.2435612    -0.84760
Hw         H          0.6471694     0.3635015     0.2319734     0.42380
Hw         H          0.6871036     0.3860619     0.2310989     0.42380
Ow         O          0.6392412     0.3711061     0.1292142    -0.84760
Hw         H          0.6316068     0.3954410     0.1292142     0.42380
Hw         H          0.6183932     0.3574178     0.1390529     0.42380
Ow         O          0.6421776     0.2841598     0.2052998    -0.84760
Hw         H          0.6462885     0.2628669     0.2166689     0.42380
Hw         H          0.6260277     0.3003830     0.2173248     0.42380
Ow         O          0.6048861     0.1944251     0.3607504    -0.84760
Hw         H          0.6307259     0.1911298     0.3705890     0.42380
Hw         H          0.6010688     0.2190135     0.3559404     0.42380
Ow         O          0.7517031     0.3536155     0.1703179    -0.84760
Hw         H          0.7373150     0.3315620     0.1722856     0.42380
Hw         H          0.7449495     0.3645155     0.1512965     0.42380
Ow         O          0.6295513     0.2550087     0.2879444    -0.84760
Hw         H          0.6556848     0.2436018     0.2848835     0.42380
Hw         H          0.6081160     0.2385320     0.2837903     0.42380
Ow         O          0.9202490     0.4618548     0.3649045    -0.84760
Hw         H          0.9272962     0.4770640     0.3482881     0.42380
Hw         H          0.9223044     0.4377734     0.3583454     0.42380
Ow         O          0.8086681     0.1609648     0.3318903    -0.84760
Hw         H          0.7948673     0.1602043     0.3513490     0.42380
Hw         H          0.7936927     0.1470229     0.3174603     0.42380
Ow         O          0.8574113     0.2332088     0.3552844    -0.84760
Hw         H          0.8709185     0.2119158     0.3489440     0.42380
Hw         H          0.8409678     0.2418274     0.3388867     0.42380
Ow         O          0.8626967     0.1115346     0.2831344    -0.84760
Hw         H          0.8400869     0.1201532     0.2949407     0.42380
Hw         H          0.8527132     0.0986068     0.2658621     0.42380
Ow         O          0.5940216     0.2131832     0.1840920    -0.84760
Hw         H          0.6230914     0.2101414     0.1860597     0.42380
Hw         H          0.5869744     0.2372646     0.1886834     0.42380
Ow         O          0.6098778     0.4692059     0.3550658    -0.84760
Hw         H          0.6069415     0.4654036     0.3767108     0.42380
Hw         H          0.5846253     0.4783315     0.3471949     0.42380
Ow         O          0.7332041     0.0572882     0.2050811    -0.84760
Hw         H          0.7317360     0.0560208     0.2269448     0.42380
Hw         H          0.7337914     0.0816231     0.1987407     0.42380
Ow         O          0.6747710     0.4641362     0.1980847    -0.84760
Hw         H          0.6894527     0.4423362     0.1993966     0.42380
Hw         H          0.6938572     0.4836547     0.1974288     0.42380
Ow         O          0.9319944     0.4005107     0.3408544    -0.84760
Hw         H          0.9337562     0.3809922     0.3548472     0.42380
Hw         H          0.9167254     0.3939200     0.3233635     0.42380
Ow         O          0.7070707     0.3285202     0.3891731    -0.84760
Hw         H          0.6923890     0.3287737     0.3703704     0.42380
Hw         H          0.6885718     0.3239574     0.4057895     0.42380
Ow         O          0.6448203     0.4600804     0.2829157    -0.84760
Hw         H          0.6615574     0.4436037     0.2938476     0.42380
Hw         H          0.6401222     0.4517153     0.2625825     0.42380
Ow         O          0.8477214     0.4380269     0.2092352    -0.84760
Hw         H          0.8712121     0.4235781     0.2138266     0.42380
Hw         H          0.8333333     0.4278874     0.1924002     0.42380
Ow         O          0.8324524     0.3913852     0.2728585    -0.84760
Hw         H          0.8256988     0.3850480     0.2523066     0.42380
Hw         H          0.8503641     0.3738945     0.2813853     0.42380
Ow         O          0.8424360     0.1351090     0.2081420    -0.84760
Hw         H          0.8350951     0.1328276     0.1871529     0.42380
Hw         H          0.8565304     0.1143230     0.2149198     0.42380
Ow         O          0.9319944     0.4055805     0.1849665    -0.84760
Hw         H          0.9381607     0.4243386     0.1707552     0.42380
Hw         H          0.9519615     0.4055805     0.2009270     0.42380
Ow         O          0.7064834     0.2996226     0.1735974    -0.84760
Hw         H          0.6856354     0.2927784     0.1878088     0.42380
Hw         H          0.6988490     0.2925249     0.1532642     0.42380
Ow         O          0.9449143     0.4631222     0.1408020    -0.84760
Hw         H          0.9578342     0.4793454     0.1268092     0.42380
Hw         H          0.9302326     0.4763036     0.1561065     0.42380
Ow         O          0.7364341     0.0638789     0.2623639    -0.84760
Hw         H          0.7475922     0.0425860     0.2704535     0.42380
Hw         H          0.7105943     0.0686952     0.2719839     0.42380
Ow         O          0.8259925     0.1226881     0.1519524    -0.84760
Hw         H          0.8165962     0.1409392     0.1383970     0.42380
Hw         H          0.8330397     0.1021556     0.1403647     0.42380
Ow         O          0.8703312     0.0174907     0.1762211    -0.84760
Hw         H          0.8491896     0.0187581     0.1611352     0.42380
Hw         H          0.8632840    -0.0000000     0.1913070     0.42380
Ow         O          0.8841320     0.3490527     0.3045608    -0.84760
Hw         H          0.8606413     0.3432225     0.3165858     0.42380
Hw         H          0.9085036     0.3424620     0.3152740     0.42380
Ow         O          0.8979328     0.3105226     0.2520880    -0.84760
Hw         H          0.8861875     0.3216760     0.2697975     0.42380
Hw         H          0.8858938     0.3199016     0.2339411     0.42380
Ow         O          0.8403805     0.0301650     0.3181162    -0.84760
Hw         H          0.8477214     0.0250953     0.2973458     0.42380
Hw         H          0.8615222     0.0443604     0.3272990     0.42380
Ow         O          0.8594668     0.2904970     0.3874240    -0.84760
Hw         H          0.8303970     0.2920179     0.3896104     0.42380
Hw         H          0.8662203     0.2702180     0.3751804     0.42380
Ow         O          0.6920954     0.2136902     0.2851021    -0.84760
Hw         H          0.7173479     0.2167321     0.2960339     0.42380
Hw         H          0.6797627     0.1916368     0.2910053     0.42380
Ow         O          0.6794691     0.2864412     0.1211247    -0.84760
Hw         H          0.6774137     0.3074807     0.1088810     0.42380
Hw         H          0.6806436     0.2661622     0.1080065     0.42380
Ow         O          0.7379023     0.1437276     0.2007084    -0.84760
Hw         H          0.7414259     0.1604578     0.1845293     0.42380
Hw         H          0.7514094     0.1523462     0.2188552     0.42380
Ow         O          0.9452079     0.3738945     0.2612707    -0.84760
Hw         H          0.9590087     0.3771898     0.2802921     0.42380
Hw         H          0.9258280     0.3551364     0.2632384     0.42380
Ow         O          0.6897463     0.1979740     0.3609690    -0.84760
Hw         H          0.7097134     0.2119158     0.3506931     0.42380
Hw         H          0.7014917     0.1756670     0.3668722     0.42380
Ow         O          0.7399577     0.2281390     0.2365648    -0.84760
Hw         H          0.7528776     0.2506994     0.2345971     0.42380
Hw         H          0.7214588     0.2281390     0.2533998     0.42380
Ow         O          0.9710477     0.2261111     0.2400630    -0.84760
Hw         H          0.9490251     0.2261111     0.2256330     0.42380
Hw         H          0.9819121     0.2027902     0.2420307     0.42380
Ow         O          0.5825699     0.3396737     0.2918798    -0.84760
Hw         H          0.5981325     0.3272528     0.3067471     0.42380
Hw         H          0.5890298     0.3645155     0.2929730     0.42380
Ow         O          0.7866455     0.1683159     0.2442171    -0.84760
Hw         H          0.8039699     0.1617252     0.2276007     0.42380
Hw         H          0.7784238     0.1926507     0.2418121     0.42380
Ow         O          0.6618511     0.0235744     0.1467051    -0.84760
Hw         H          0.6586211     0.0474022     0.1539202     0.42380
Hw         H          0.6603829     0.0076046     0.1635402     0.42380
Ow         O          0.8720930     0.2017763     0.2227907    -0.84760
Hw         H          0.8764975     0.2070995     0.2437798     0.42380
Hw         H          0.8632840     0.1776949     0.2208229     0.42380
Ow         O          0.6653747     0.2129298     0.2190739    -0.84760
Hw         H          0.6926826     0.2220553     0.2201670     0.42380
Hw         H          0.6636129     0.1913833     0.2304430     0.42380
Ow         O          0.6712474     0.1366299     0.2315361    -0.84760
Hw         H          0.6559784     0.1155904     0.2278193     0.42380
Hw         H          0.6938572     0.1378974     0.2175434     0.42380
Ow         O          0.9123209     0.0600766     0.3345140    -0.84760
Hw         H          0.9123209     0.0762998     0.3513490     0.42380
Hw         H          0.9205426     0.0722440     0.3163671     0.42380
Ow         O          0.5975452     0.4641362     0.2142639    -0.84760
Hw         H          0.5852126     0.4423362     0.2083607     0.42380
Hw         H          0.6251468     0.4648966     0.2068302     0.42380
Ow         O          0.7196970     0.4050735     0.2105470    -0.84760
Hw         H          0.7390768     0.4238316     0.2125148     0.42380
Hw         H          0.7326169     0.3850480     0.2013643     0.42380
Ow         O          0.8659267     0.2093809     0.2822598    -0.84760
Hw         H          0.8779657     0.2012693     0.3010626     0.42380
Hw         H          0.8377378     0.2025368     0.2816039     0.42380
Ow         O          0.5834508     0.1455020     0.2551489    -0.84760
Hw         H          0.6084097     0.1371369     0.2461848     0.42380
Hw         H          0.5872680     0.1493043     0.2765753     0.42380
Ow         O          0.9736904     0.2484180     0.3745245    -0.84760
Hw         H          0.9851421     0.2709785     0.3788972     0.42380
Hw         H          0.9766267     0.2433483     0.3533167     0.42380
Ow         O          0.7687339     0.1252230     0.2890376    -0.84760
Hw         H          0.7587503     0.1026626     0.2824785     0.42380
Hw         H          0.7763683     0.1389113     0.2715466     0.42380
Ow         O          0.8447851     0.4329572     0.3318903    -0.84760
Hw         H          0.8377378     0.4283944     0.3111199     0.42380
Hw         H          0.8535941     0.4567850     0.3340767     0.42380
Ow         O          0.6183932     0.2958203     0.3321090    -0.84760
Hw         H          0.6248532     0.2803575     0.3487253     0.42380
Hw         H          0.6213296     0.2833994     0.3133062     0.42380
Ow         O          0.9672304     0.2760482     0.2813853    -0.84760
Hw         H          0.9742777     0.2600785     0.2652062     0.42380
Hw         H          0.9408034     0.2861877     0.2774498     0.42380
Ow         O          0.5960770     0.3264923     0.2350343    -0.84760
Hw         H          0.5946089     0.3262388     0.2568980     0.42380
Hw         H          0.5717054     0.3160993     0.2267261     0.42380
Ow         O          0.7737256     0.4289014     0.3867681    -0.84760
Hw         H          0.7572821     0.4494339     0.3887358     0.42380
Hw         H          0.7889946     0.4299153     0.3679654     0.42380
Ow         O          0.8154217     0.3302946     0.3224890    -0.84760
Hw         H          0.8139535     0.3386597     0.3432594     0.42380
Hw         H          0.7901691     0.3351109     0.3124317     0.42380
Ow         O          0.6489312     0.0902417     0.1690061    -0.84760
Hw         H          0.6257341     0.1031695     0.1615724     0.42380
Hw         H          0.6462885     0.0864393     0.1904325     0.42380
Ow         O          0.8130726     0.2615994     0.3115571    -0.84760
Hw         H          0.8248179     0.2613459     0.2914426     0.42380
Hw         H          0.8160089     0.2849203     0.3203026     0.42380
Ow         O          0.6809373     0.3340969     0.3373562    -0.84760
Hw         H          0.6771200     0.3576713     0.3299226     0.42380
Hw         H          0.6562720     0.3209156     0.3345140     0.42380
Ow         O          0.8767912     0.2859342     0.1637588    -0.84760
Hw         H          0.8562368     0.2740203     0.1755652     0.42380
Hw         H          0.8941156     0.2686971     0.1543574     0.42380
Ow         O          0.8694503     0.0674278     0.2238839    -0.84760
Hw         H          0.8671012     0.0583022     0.2035507     0.42380
Hw         H          0.8688630     0.0481627     0.2380952     0.42380
Ow         O          0.7517031     0.2210414     0.3244567    -0.84760
Hw         H          0.7681466     0.2415739     0.3207399     0.42380
Hw         H          0.7690275     0.2007623     0.3251126     0.42380
Ow         O          0.7461240     0.1964530     0.1541388    -0.84760
Hw         H          0.7608057     0.2179995     0.1499847     0.42380
Hw         H          0.7202842     0.1969600     0.1436442     0.42380
Ow         O          0.8239370     0.2499390     0.1998338    -0.84760
Hw         H          0.8397933     0.2324483     0.2103284     0.42380
Hw         H          0.8145408     0.2674296     0.2142639     0.42380
Ow         O          0.5714118     0.4053270     0.1976475    -0.84760
Hw         H          0.5505638     0.4022851     0.1823429     0.42380
Hw         H          0.5717054     0.3853015     0.2107657     0.42380
Ow         O          0.7690275     0.3602062     0.3666535    -0.84760
Hw         H          0.7461240     0.3475318     0.3749617     0.42380
Hw         H          0.7681466     0.3842875     0.3734313     0.42380
Ow         O          0.6973808     0.1150835     0.1252788    -0.84760
Hw         H          0.7061898     0.0968323     0.1117233     0.42380
Hw         H          0.6859291     0.1049440     0.1434256     0.42380
Ow         O          0.6647874     0.1462625     0.2914426    -0.84760
Hw         H          0.6759455     0.1313067     0.3071844     0.42380
Hw         H          0.6765328     0.1396718     0.2722025     0.42380
Ow         O          0.8101362     0.4096363     0.1617911    -0.84760
Hw         H          0.8195325     0.4121712     0.1412392     0.42380
Hw         H          0.7869392     0.3939200     0.1622283     0.42380
Ow         O          0.8656331     0.4882175     0.2638944    -0.84760
Hw         H          0.8471341     0.4699664     0.2571166     0.42380
Hw         H          0.8929410     0.4790919     0.2638944     0.42380
Ow         O          0.7531712     0.4048200     0.2923171    -0.84760
Hw         H          0.7517031     0.4256060     0.3047794     0.42380
Hw         H          0.7793047     0.4040596     0.2824785     0.42380
Ow         O          0.1920366     0.8027959     0.2662994    -0.84760
Hw         H          0.1647287     0.8010215     0.2582098     0.42380
Hw         H          0.1952666     0.8253563     0.2759194     0.42380
Ow         O          0.4815598     0.8626190     0.1652893    -0.84760
Hw         H          0.4648226     0.8585632     0.1829988     0.42380
Hw         H          0.4642354     0.8651539     0.1477983     0.42380
Ow         O          0.3582335     0.6578008     0.1683502    -0.84760
Hw         H          0.3749706     0.6775729     0.1628843     0.42380
Hw         H          0.3406155     0.6643915     0.1849665     0.42380
Ow         O          0.2504698     0.7695890     0.2352530    -0.84760
Hw         H          0.2275664     0.7738983     0.2483712     0.42380
Hw         H          0.2604534     0.7916424     0.2273820     0.42380
Ow         O          0.2745478     0.6818822     0.4101622    -0.84760
Hw         H          0.2733733     0.7011473     0.4243736     0.42380
Hw         H          0.2810078     0.6910077     0.3902663     0.42380
Ow         O          0.2260982     0.7361286     0.1569811    -0.84760
Hw         H          0.2463589     0.7320728     0.1722856     0.42380
Hw         H          0.2046629     0.7505774     0.1652893     0.42380
Ow         O          0.1233263     0.8433539     0.2435612    -0.84760
Hw         H          0.1004228     0.8354958     0.2319734     0.42380
Hw         H          0.1403571     0.8580562     0.2310989     0.42380
Ow         O          0.4536646     0.8610981     0.3043421    -0.84760
Hw         H          0.4607118     0.8849259     0.3100267     0.42380
Hw         H          0.4489664     0.8474097     0.3222703     0.42380
Ow         O          0.1535706     0.5789661     0.3393240    -0.84760
Hw         H          0.1776486     0.5647708     0.3412917     0.42380
Hw         H          0.1297862     0.5642638     0.3401985     0.42380
Ow         O          0.4956542     0.5929080     0.1727229    -0.84760
Hw         H          0.4739253     0.6045684     0.1617911     0.42380
Hw         H          0.5106296     0.6101451     0.1843106     0.42380
Ow         O          0.3558844     0.8195261     0.3810836    -0.84760
Hw         H          0.3696852     0.8195261     0.4003236     0.42380
Hw         H          0.3417900     0.7974726     0.3786786     0.42380
Ow         O          0.0924947     0.8431004     0.1292142    -0.84760
Hw         H          0.0848602     0.8674353     0.1292142     0.42380
Hw         H          0.0716467     0.8294121     0.1390529     0.42380
Ow         O          0.0954311     0.7561541     0.2052998    -0.84760
Hw         H          0.0995419     0.7348611     0.2166689     0.42380
Hw         H          0.0792812     0.7723773     0.2173248     0.42380
Ow         O          0.0607822     0.6425916     0.1346801    -0.84760
Hw         H          0.0475687     0.6202847     0.1383970     0.42380
Hw         H          0.0604886     0.6562799     0.1530456     0.42380
Ow         O          0.5209067     0.7133147     0.1453933    -0.84760
Hw         H          0.5488020     0.7059635     0.1471424     0.42380
Hw         H          0.5185577     0.7297914     0.1289956     0.42380
Ow         O          0.0581395     0.6664194     0.3607504    -0.84760
Hw         H          0.0839793     0.6631241     0.3705890     0.42380
Hw         H          0.0543223     0.6910077     0.3559404     0.42380
Ow         O          0.2049565     0.8256098     0.1703179    -0.84760
Hw         H          0.1905685     0.8035563     0.1722856     0.42380
Hw         H          0.1982030     0.8365097     0.1512965     0.42380
Ow         O          0.2625088     0.9526072     0.1213433    -0.84760
Hw         H          0.2742542     0.9756746     0.1193756     0.42380
Hw         H          0.2331454     0.9546351     0.1226551     0.42380
Ow         O          0.3735025     0.9338491     0.3649045    -0.84760
Hw         H          0.3805497     0.9490583     0.3482881     0.42380
Hw         H          0.3755579     0.9097677     0.3583454     0.42380
Ow         O          0.4011041     0.5670522     0.2179807    -0.84760
Hw         H          0.3758515     0.5543778     0.2151384     0.42380
Hw         H          0.4193094     0.5533639     0.2302243     0.42380
Ow         O          0.2619215     0.6329590     0.3318903    -0.84760
Hw         H          0.2481207     0.6321986     0.3513490     0.42380
Hw         H          0.2469462     0.6190172     0.3174603     0.42380
Ow         O          0.3159502     0.5835289     0.2831344    -0.84760
Hw         H          0.2933404     0.5921475     0.2949407     0.42380
Hw         H          0.3059666     0.5706010     0.2658621     0.42380
Ow         O          0.0472751     0.6851775     0.1840920    -0.84760
Hw         H          0.0763448     0.6821357     0.1860597     0.42380
Hw         H          0.0402279     0.7092589     0.1886834     0.42380
Ow         O          0.4248884     0.7695890     0.1307447    -0.84760
Hw         H          0.4492600     0.7622378     0.1202501     0.42380
Hw         H          0.4105004     0.7865726     0.1185010     0.42380
Ow         O          0.1864576     0.5292825     0.2050811    -0.84760
Hw         H          0.1849894     0.5280151     0.2269448     0.42380
Hw         H          0.1870449     0.5536174     0.1987407     0.42380
Ow         O          0.5520319     0.7498169     0.2024575    -0.84760
Hw         H          0.5338266     0.7460146     0.1858411     0.42380
Hw         H          0.5367630     0.7526053     0.2210416     0.42380
Ow         O          0.3852478     0.8725050     0.3408544    -0.84760
Hw         H          0.3870096     0.8529865     0.3548472     0.42380
Hw         H          0.3699789     0.8659143     0.3233635     0.42380
Ow         O          0.4530773     0.6659125     0.1707552    -0.84760
Hw         H          0.4516091     0.6494357     0.1871529     0.42380
Hw         H          0.4765680     0.6808682     0.1735974     0.42380
Ow         O          0.0842730     0.5518429     0.3391053    -0.84760
Hw         H          0.0607822     0.5670522     0.3362631     0.42380
Hw         H          0.0813366     0.5394220     0.3579081     0.42380
Ow         O          0.0980738     0.9320746     0.2829157    -0.84760
Hw         H          0.1148109     0.9155979     0.2938476     0.42380
Hw         H          0.0933756     0.9237096     0.2625825     0.42380
Ow         O          0.3009749     0.9100212     0.2092352    -0.84760
Hw         H          0.3244656     0.8955724     0.2138266     0.42380
Hw         H          0.2865868     0.8998817     0.1924002     0.42380
Ow         O          0.2857059     0.8633795     0.2728585    -0.84760
Hw         H          0.2789523     0.8570423     0.2523066     0.42380
Hw         H          0.3036176     0.8458888     0.2813853     0.42380
Ow         O          0.4216584     0.6291567     0.3248940    -0.84760
Hw         H          0.4298802     0.6182567     0.3434781     0.42380
Hw         H          0.4289993     0.6534916     0.3251126     0.42380
Ow         O          0.2607470     0.8349888     0.2136079    -0.84760
Hw         H          0.2871741     0.8385376     0.2044252     0.42380
Hw         H          0.2398990     0.8354958     0.1980847     0.42380
Ow         O          0.1832276     0.4958221     0.1235297    -0.84760
Hw         H          0.1594433     0.4960756     0.1362106     0.42380
Hw         H          0.1841085     0.5168616     0.1115047     0.42380
Ow         O          0.3409091     0.6527311     0.3316717    -0.84760
Hw         H          0.3174184     0.6372683     0.3323276     0.42380
Hw         H          0.3646934     0.6392962     0.3264244     0.42380
Ow         O          0.3852478     0.8775748     0.1849665    -0.84760
Hw         H          0.3914141     0.8963329     0.1707552     0.42380
Hw         H          0.4052149     0.8775748     0.2009270     0.42380
Ow         O          0.1597369     0.7716169     0.1735974    -0.84760
Hw         H          0.1388889     0.7647727     0.1878088     0.42380
Hw         H          0.1521024     0.7645192     0.1532642     0.42380
Ow         O          0.0478623     0.6205381     0.3146180    -0.84760
Hw         H          0.0748767     0.6202847     0.3056539     0.42380
Hw         H          0.0461005     0.6392962     0.3292667     0.42380
Ow         O          0.1896876     0.5358732     0.2623639    -0.84760
Hw         H          0.2008457     0.5145802     0.2704535     0.42380
Hw         H          0.1638478     0.5406895     0.2719839     0.42380
Ow         O          0.2792459     0.5946824     0.1519524    -0.84760
Hw         H          0.2698497     0.6129335     0.1383970     0.42380
Hw         H          0.2862932     0.5741499     0.1403647     0.42380
Ow         O          0.3235847     0.4894849     0.1762211    -0.84760
Hw         H          0.3024430     0.4907524     0.1611352     0.42380
Hw         H          0.3165375     0.4719943     0.1913070     0.42380
Ow         O          0.4445619     0.7769401     0.2011457    -0.84760
Hw         H          0.4284120     0.7556471     0.1996152     0.42380
Hw         H          0.4521964     0.7842913     0.1810311     0.42380
Ow         O          0.4554264     0.6291567     0.2284752    -0.84760
Hw         H          0.4466173     0.6050754     0.2300057     0.42380
Hw         H          0.4768616     0.6332125     0.2429052     0.42380
Ow         O          0.5135659     0.8040633     0.1552320    -0.84760
Hw         H          0.5426357     0.8060912     0.1582929     0.42380
Hw         H          0.5003524     0.8253563     0.1620097     0.42380
Ow         O          0.5399930     0.7896145     0.3587826    -0.84760
Hw         H          0.5667136     0.7797285     0.3559404     0.42380
Hw         H          0.5423420     0.8139493     0.3640299     0.42380
Ow         O          0.4924242     0.8925306     0.3668722    -0.84760
Hw         H          0.5003524     0.9011491     0.3471949     0.42380
Hw         H          0.5156213     0.8828980     0.3769295     0.42380
Ow         O          0.3511863     0.7825168     0.2520880    -0.84760
Hw         H          0.3394409     0.7936703     0.2697975     0.42380
Hw         H          0.3391473     0.7918959     0.2339411     0.42380
Ow         O          0.5059314     0.7581820     0.2474966    -0.84760
Hw         H          0.5073996     0.7787145     0.2603962     0.42380
Hw         H          0.4806789     0.7586890     0.2363461     0.42380
Ow         O          0.1453488     0.6856845     0.2851021    -0.84760
Hw         H          0.1706014     0.6887264     0.2960339     0.42380
Hw         H          0.1330162     0.6636311     0.2910053     0.42380
Ow         O          0.3990486     0.5774452     0.2875071    -0.84760
Hw         H          0.4052149     0.5962033     0.3014998     0.42380
Hw         H          0.3729152     0.5817545     0.2781057     0.42380
Ow         O          0.0437515     0.8760538     0.3025930    -0.84760
Hw         H          0.0302443     0.8968398     0.2951594     0.42380
Hw         H          0.0725276     0.8808701     0.3045608     0.42380
Ow         O          0.1911557     0.6157219     0.2007084    -0.84760
Hw         H          0.1946794     0.6324521     0.1845293     0.42380
Hw         H          0.2046629     0.6243405     0.2188552     0.42380
Ow         O          0.3984614     0.8458888     0.2612707    -0.84760
Hw         H          0.4122622     0.8491841     0.2802921     0.42380
Hw         H          0.3790815     0.8271307     0.2632384     0.42380
Ow         O          0.1289053     0.8623655     0.3021558    -0.84760
Hw         H          0.1227390     0.8512120     0.2831344     0.42380
Hw         H          0.1573878     0.8689562     0.3028117     0.42380
Ow         O          0.1429998     0.6699683     0.3609690    -0.84760
Hw         H          0.1629669     0.6839101     0.3506931     0.42380
Hw         H          0.1547451     0.6476613     0.3668722     0.42380
Ow         O          0.4909561     0.6770659     0.3767108    -0.84760
Hw         H          0.4639417     0.6866985     0.3756176     0.42380
Hw         H          0.5085741     0.6889798     0.3624995     0.42380
Ow         O          0.1932112     0.7001333     0.2365648    -0.84760
Hw         H          0.2061311     0.7226937     0.2345971     0.42380
Hw         H          0.1747122     0.7001333     0.2533998     0.42380
Ow         O          0.4243012     0.6981054     0.2400630    -0.84760
Hw         H          0.4022786     0.6981054     0.2256330     0.42380
Hw         H          0.4351656     0.6747845     0.2420307     0.42380
Ow         O          0.1151045     0.5335918     0.2807294    -0.84760
Hw         H          0.1083510     0.5429709     0.3004067     0.42380
Hw         H          0.1062955     0.5095105     0.2794176     0.42380
Ow         O          0.0358233     0.8116679     0.2918798    -0.84760
Hw         H          0.0513860     0.7992470     0.3067471     0.42380
Hw         H          0.0422833     0.8365097     0.2929730     0.42380
Ow         O          0.2398990     0.6403102     0.2442171    -0.84760
Hw         H          0.2572234     0.6337195     0.2276007     0.42380
Hw         H          0.2316772     0.6646450     0.2418121     0.42380
Ow         O          0.1151045     0.4955687     0.1467051    -0.84760
Hw         H          0.1118746     0.5193965     0.1539202     0.42380
Hw         H          0.1136364     0.4795989     0.1635402     0.42380
Ow         O          0.3253465     0.6737706     0.2227907    -0.84760
Hw         H          0.3297510     0.6790938     0.2437798     0.42380
Hw         H          0.3165375     0.6496892     0.2208229     0.42380
Ow         O          0.0240780     0.8643934     0.3624995    -0.84760
Hw         H          0.0281889     0.8712376     0.3417290     0.42380
Hw         H          0.0484496     0.8699701     0.3740872     0.42380
Ow         O          0.3385600     0.8174982     0.1972102    -0.84760
Hw         H          0.3406155     0.7962052     0.1851852     0.42380
Hw         H          0.3567653     0.8349888     0.1893393     0.42380
Ow         O          0.1186281     0.6849240     0.2190739    -0.84760
Hw         H          0.1459361     0.6940496     0.2201670     0.42380
Hw         H          0.1168663     0.6633776     0.2304430     0.42380
Ow         O          0.1245008     0.6086242     0.2315361    -0.84760
Hw         H          0.1092319     0.5875847     0.2278193     0.42380
Hw         H          0.1471106     0.6098917     0.2175434     0.42380
Ow         O          0.3591144     0.5759243     0.3784599    -0.84760
Hw         H          0.3459009     0.5918940     0.3924527     0.42380
Hw         H          0.3864224     0.5837824     0.3747431     0.42380
Ow         O          0.0507987     0.9361305     0.2142639    -0.84760
Hw         H          0.0384661     0.9143305     0.2083607     0.42380
Hw         H          0.0784003     0.9368909     0.2068302     0.42380
Ow         O          0.1729504     0.8770678     0.2105470    -0.84760
Hw         H          0.1923303     0.8958259     0.2125148     0.42380
Hw         H          0.1858703     0.8570423     0.2013643     0.42380
Ow         O          0.5115105     0.6327056     0.2752635    -0.84760
Hw         H          0.5003524     0.6152149     0.2888189     0.42380
Hw         H          0.5355884     0.6235800     0.2656434     0.42380
Ow         O          0.2980385     0.9049515     0.3318903    -0.84760
Hw         H          0.2909913     0.9003887     0.3111199     0.42380
Hw         H          0.3068475     0.9287793     0.3340767     0.42380
Ow         O          0.0716467     0.7678146     0.3321090    -0.84760
Hw         H          0.0781066     0.7523518     0.3487253     0.42380
Hw         H          0.0745830     0.7553937     0.3133062     0.42380
Ow         O          0.4204839     0.7480425     0.2813853    -0.84760
Hw         H          0.4275311     0.7320728     0.2652062     0.42380
Hw         H          0.3940568     0.7581820     0.2774498     0.42380
Ow         O          0.5414611     0.9224421     0.2638944    -0.84760
Hw         H          0.5593728     0.9300467     0.2479339     0.42380
Hw         H          0.5303030     0.8998817     0.2590843     0.42380
Ow         O          0.5317712     0.5138198     0.1259347    -0.84760
Hw         H          0.5532065     0.5095105     0.1112860     0.42380
Hw         H          0.5226685     0.4917663     0.1342429     0.42380
Ow         O          0.2686751     0.8022889     0.3224890    -0.84760
Hw         H          0.2672070     0.8106540     0.3432594     0.42380
Hw         H          0.2434226     0.8071052     0.3124317     0.42380
Ow         O          0.5094550     0.9155979     0.3163671    -0.84760
Hw         H          0.5250176     0.9181328     0.2980017     0.42380
Hw         H          0.5015269     0.9384118     0.3238008     0.42380
Ow         O          0.1021846     0.5622359     0.1690061    -0.84760
Hw         H          0.0789875     0.5751638     0.1615724     0.42380
Hw         H          0.0995419     0.5584336     0.1904325     0.42380
Ow         O          0.2663261     0.7335937     0.3115571    -0.84760
Hw         H          0.2780714     0.7333402     0.2914426     0.42380
Hw         H          0.2692624     0.7569146     0.3203026     0.42380
Ow         O          0.1341907     0.8060912     0.3373562    -0.84760
Hw         H          0.1303735     0.8296656     0.3299226     0.42380
Hw         H          0.1095255     0.7929098     0.3345140     0.42380
Ow         O          0.4988842     0.8071052     0.2934103    -0.84760
Hw         H          0.5165022     0.8078656     0.3109012     0.42380
Hw         H          0.4768616     0.8233284     0.2962526     0.42380
Ow         O          0.3300446     0.7579285     0.1637588    -0.84760
Hw         H          0.3094903     0.7460146     0.1755652     0.42380
Hw         H          0.3473690     0.7406914     0.1543574     0.42380
Ow         O          0.3227038     0.5394220     0.2238839    -0.84760
Hw         H          0.3203547     0.5302965     0.2035507     0.42380
Hw         H          0.3221165     0.5201570     0.2380952     0.42380
Ow         O          0.5267794     0.5771917     0.3135249    -0.84760
Hw         H          0.5482147     0.5946824     0.3143994     0.42380
Hw         H          0.5350012     0.5581801     0.3006253     0.42380
Ow         O          0.2222809     0.5310569     0.3371376    -0.84760
Hw         H          0.2487080     0.5270011     0.3283921     0.42380
Hw         H          0.2246300     0.5323244     0.3587826     0.42380
Ow         O          0.4477919     0.6965845     0.3172417    -0.84760
Hw         H          0.4310547     0.7097658     0.3034676     0.42380
Hw         H          0.4759807     0.6996263     0.3119944     0.42380
Ow         O          0.2049565     0.6930357     0.3244567    -0.84760
Hw         H          0.2214000     0.7135682     0.3207399     0.42380
Hw         H          0.2222809     0.6727566     0.3251126     0.42380
Ow         O          0.4633545     0.9275119     0.2212602    -0.84760
Hw         H          0.4730444     0.9437351     0.2061743     0.42380
Hw         H          0.4827343     0.9259909     0.2376580     0.42380
Ow         O          0.4507282     0.7888540     0.3686213    -0.84760
Hw         H          0.4480855     0.7863192     0.3902663     0.42380
Hw         H          0.4789171     0.7870796     0.3629367     0.42380
Ow         O          0.1394762     0.9209212     0.3526608    -0.84760
Hw         H          0.1127555     0.9313142     0.3522235     0.42380
Hw         H          0.1374207     0.8970933     0.3596572     0.42380
Ow         O          0.3846606     0.5619825     0.1097556    -0.84760
Hw         H          0.4037468     0.5432244     0.1073506     0.42380
Hw         H          0.3905332     0.5746568     0.1281210     0.42380
Ow         O          0.1993775     0.6684473     0.1541388    -0.84760
Hw         H          0.2140592     0.6899938     0.1499847     0.42380
Hw         H          0.1735377     0.6689543     0.1436442     0.42380
Ow         O          0.5467465     0.5662917     0.3705890    -0.84760
Hw         H          0.5417548     0.5741499     0.3500372     0.42380
Hw         H          0.5220813     0.5569127     0.3788972     0.42380
Ow         O          0.2771905     0.7219333     0.1998338    -0.84760
Hw         H          0.2930467     0.7044426     0.2103284     0.42380
Hw         H          0.2677942     0.7394239     0.2142639     0.42380
Ow         O          0.0246653     0.8773213     0.1976475    -0.84760
Hw         H          0.0038172     0.8742794     0.1823429     0.42380
Hw         H          0.0249589     0.8572957     0.2107657     0.42380
Ow         O          0.0481560     0.7939238     0.1543574    -0.84760
Hw         H          0.0478623     0.7820099     0.1735974     0.42380
Hw         H          0.0722340     0.7868261     0.1432070     0.42380
Ow         O          0.5605473     0.5282686     0.2798548    -0.84760
Hw         H          0.5593728     0.5054547     0.2894748     0.42380
Hw         H          0.5614282     0.5254802     0.2582098     0.42380
Ow         O          0.5256049     0.8565353     0.2529625    -0.84760
Hw         H          0.4982969     0.8501981     0.2470593     0.42380
Hw         H          0.5332394     0.8438609     0.2708907     0.42380
Ow         O          0.1180409     0.6182567     0.2914426    -0.84760
Hw         H          0.1291990     0.6033010     0.3071844     0.42380
Hw         H          0.1297862     0.6116661     0.2722025     0.42380
Ow         O          0.4430937     0.5338453     0.2547116    -0.84760
Hw         H          0.4583627     0.5173686     0.2667366     0.42380
Hw         H          0.4287057     0.5498150     0.2680484     0.42380
Ow         O          0.2064247     0.8768143     0.2923171    -0.84760
Hw         H          0.2049565     0.8976003     0.3047794     0.42380
Hw         H          0.2325581     0.8760538     0.2824785     0.42380
Ow         O          0.4927179     0.5356197     0.2044252    -0.84760
Hw         H          0.4680526     0.5353662     0.2162316     0.42380
Hw         H          0.4933051     0.5566592     0.1921816     0.42380
Ow         O          0.7387832     0.8027959     0.2662994    -0.84760
Hw         H          0.7114752     0.8010215     0.2582098     0.42380
Hw         H          0.7420132     0.8253563     0.2759194     0.42380
Ow         O          0.9049800     0.6578008     0.1683502    -0.84760
Hw         H          0.9217172     0.6775729     0.1628843     0.42380
Hw         H          0.8873620     0.6643915     0.1849665     0.42380
Ow         O          0.7972163     0.7695890     0.2352530    -0.84760
Hw         H          0.7743129     0.7738983     0.2483712     0.42380
Hw         H          0.8071999     0.7916424     0.2273820     0.42380
Ow         O          0.7728447     0.7361286     0.1569811    -0.84760
Hw         H          0.7931055     0.7320728     0.1722856     0.42380
Hw         H          0.7514094     0.7505774     0.1652893     0.42380
Ow         O          0.7003171     0.5789661     0.3393240    -0.84760
Hw         H          0.7243951     0.5647708     0.3412917     0.42380
Hw         H          0.6765328     0.5642638     0.3401985     0.42380
Ow         O          0.9026310     0.8195261     0.3810836    -0.84760
Hw         H          0.9164318     0.8195261     0.4003236     0.42380
Hw         H          0.8885365     0.7974726     0.3786786     0.42380
Ow         O          0.6392412     0.8431004     0.1292142    -0.84760
Hw         H          0.6316068     0.8674353     0.1292142     0.42380
Hw         H          0.6183932     0.8294121     0.1390529     0.42380
Ow         O          0.6421776     0.7561541     0.2052998    -0.84760
Hw         H          0.6462885     0.7348611     0.2166689     0.42380
Hw         H          0.6260277     0.7723773     0.2173248     0.42380
Ow         O          0.7537585     0.9323281     0.3262058    -0.84760
Hw         H          0.7267442     0.9280188     0.3338581     0.42380
Hw         H          0.7619803     0.9556490     0.3318903     0.42380
Ow         O          0.6075288     0.6425916     0.1346801    -0.84760
Hw         H          0.5943152     0.6202847     0.1383970     0.42380
Hw         H          0.6072351     0.6562799     0.1530456     0.42380
Ow         O          0.6048861     0.6664194     0.3607504    -0.84760
Hw         H          0.6307259     0.6631241     0.3705890     0.42380
Hw         H          0.6010688     0.6910077     0.3559404     0.42380
Ow         O          0.9513742     0.7908819     0.3227076    -0.84760
Hw         H          0.9622387     0.7723773     0.3100267     0.42380
Hw         H          0.9666432     0.7921494     0.3412917     0.42380
Ow         O          0.8092553     0.9526072     0.1213433    -0.84760
Hw         H          0.8210007     0.9756746     0.1193756     0.42380
Hw         H          0.7798919     0.9546351     0.1226551     0.42380
Ow         O          0.6295513     0.7270030     0.2879444    -0.84760
Hw         H          0.6556848     0.7155961     0.2848835     0.42380
Hw         H          0.6081160     0.7105263     0.2837903     0.42380
Ow         O          0.9478506     0.5670522     0.2179807    -0.84760
Hw         H          0.9225981     0.5543778     0.2151384     0.42380
Hw         H          0.9660559     0.5533639     0.2302243     0.42380
Ow         O          0.8086681     0.6329590     0.3318903    -0.84760
Hw         H          0.7948673     0.6321986     0.3513490     0.42380
Hw         H          0.7936927     0.6190172     0.3174603     0.42380
Ow         O          0.8574113     0.7052031     0.3552844    -0.84760
Hw         H          0.8709185     0.6839101     0.3489440     0.42380
Hw         H          0.8409678     0.7138217     0.3388867     0.42380
Ow         O          0.8626967     0.5835289     0.2831344    -0.84760
Hw         H          0.8400869     0.5921475     0.2949407     0.42380
Hw         H          0.8527132     0.5706010     0.2658621     0.42380
Ow         O          0.6098778     0.9412002     0.3550658    -0.84760
Hw         H          0.6069415     0.9373979     0.3767108     0.42380
Hw         H          0.5846253     0.9503258     0.3471949     0.42380
Ow         O          0.7332041     0.5292825     0.2050811    -0.84760
Hw         H          0.7317360     0.5280151     0.2269448     0.42380
Hw         H          0.7337914     0.5536174     0.1987407     0.42380
Ow         O          0.9319944     0.8725050     0.3408544    -0.84760
Hw         H          0.9337562     0.8529865     0.3548472     0.42380
Hw         H          0.9167254     0.8659143     0.3233635     0.42380
Ow         O          0.7070707     0.8005145     0.3891731    -0.84760
Hw         H          0.6923890     0.8007680     0.3703704     0.42380
Hw         H          0.6885718     0.7959517     0.4057895     0.42380
Ow         O          0.6310195     0.5518429     0.3391053    -0.84760
Hw         H          0.6075288     0.5670522     0.3362631     0.42380
Hw         H          0.6280832     0.5394220     0.3579081     0.42380
Ow         O          0.8477214     0.9100212     0.2092352    -0.84760
Hw         H          0.8712121     0.8955724     0.2138266     0.42380
Hw         H          0.8333333     0.8998817     0.1924002     0.42380
Ow         O          0.8324524     0.8633795     0.2728585    -0.84760
Hw         H          0.8256988     0.8570423     0.2523066     0.42380
Hw         H          0.8503641     0.8458888     0.2813853     0.42380
Ow         O          0.9684050     0.6291567     0.3248940    -0.84760
Hw         H          0.9766267     0.6182567     0.3434781     0.42380
Hw         H          0.9757458     0.6534916     0.3251126     0.42380
Ow         O          0.8074935     0.8349888     0.2136079    -0.84760
Hw         H          0.8339206     0.8385376     0.2044252     0.42380
Hw         H          0.7866455     0.8354958     0.1980847     0.42380
Ow         O          0.8424360     0.6071033     0.2081420    -0.84760
Hw         H          0.8350951     0.6048219     0.1871529     0.42380
Hw         H          0.8565304     0.5863173     0.2149198     0.42380
Ow         O          0.8462532     0.5394220     0.1165333    -0.84760
Hw         H          0.8321588     0.5498150     0.0994796     0.42380
Hw         H          0.8753230     0.5389151     0.1123792     0.42380
Ow         O          0.9319944     0.8775748     0.1849665    -0.84760
Hw         H          0.9381607     0.8963329     0.1707552     0.42380
Hw         H          0.9519615     0.8775748     0.2009270     0.42380
Ow         O          0.7064834     0.7716169     0.1735974    -0.84760
Hw         H          0.6856354     0.7647727     0.1878088     0.42380
Hw         H          0.6988490     0.7645192     0.1532642     0.42380
Ow         O          0.9449143     0.9351165     0.1408020    -0.84760
Hw         H          0.9578342     0.9513397     0.1268092     0.42380
Hw         H          0.9302326     0.9482979     0.1561065     0.42380
Ow         O          0.7364341     0.5358732     0.2623639    -0.84760
Hw         H          0.7475922     0.5145802     0.2704535     0.42380
Hw         H          0.7105943     0.5406895     0.2719839     0.42380
Ow         O          0.8259925     0.5946824     0.1519524    -0.84760
Hw         H          0.8165962     0.6129335     0.1383970     0.42380
Hw         H          0.8330397     0.5741499     0.1403647     0.42380
Ow         O          0.8703312     0.4894849     0.1762211    -0.84760
Hw         H          0.8491896     0.4907524     0.1611352     0.42380
Hw         H          0.8632840     0.4719943     0.1913070     0.42380
Ow         O          0.8841320     0.8210470     0.3045608    -0.84760
Hw         H          0.8606413     0.8152168     0.3165858     0.42380
Hw         H          0.9085036     0.8144563     0.3152740     0.42380
Ow         O          0.8979328     0.7825168     0.2520880    -0.84760
Hw         H          0.8861875     0.7936703     0.2697975     0.42380
Hw         H          0.8858938     0.7918959     0.2339411     0.42380
Ow         O          0.5904980     0.8760538     0.3025930    -0.84760
Hw         H          0.5769908     0.8968398     0.2951594     0.42380
Hw         H          0.6192741     0.8808701     0.3045608     0.42380
Ow         O          0.7379023     0.6157219     0.2007084    -0.84760
Hw         H          0.7414259     0.6324521     0.1845293     0.42380
Hw         H          0.7514094     0.6243405     0.2188552     0.42380
Ow         O          0.9452079     0.8458888     0.2612707    -0.84760
Hw         H          0.9590087     0.8491841     0.2802921     0.42380
Hw         H          0.9258280     0.8271307     0.2632384     0.42380
Ow         O          0.6897463     0.6699683     0.3609690    -0.84760
Hw         H          0.7097134     0.6839101     0.3506931     0.42380
Hw         H          0.7014917     0.6476613     0.3668722     0.42380
Ow         O          0.7399577     0.7001333     0.2365648    -0.84760
Hw         H          0.7528776     0.7226937     0.2345971     0.42380
Hw         H          0.7214588     0.7001333     0.2533998     0.42380
Ow         O          0.9710477     0.6981054     0.2400630    -0.84760
Hw         H          0.9490251     0.6981054     0.2256330     0.42380
Hw         H          0.9819121     0.6747845     0.2420307     0.42380
Ow         O          0.6618511     0.5335918     0.2807294    -0.84760
Hw         H          0.6550975     0.5429709     0.3004067     0.42380
Hw         H          0.6530420     0.5095105     0.2794176     0.42380
Ow         O          0.5825699     0.8116679     0.2918798    -0.84760
Hw         H          0.5981325     0.7992470     0.3067471     0.42380
Hw         H          0.5890298     0.8365097     0.2929730     0.42380
Ow         O          0.7866455     0.6403102     0.2442171    -0.84760
Hw         H          0.8039699     0.6337195     0.2276007     0.42380
Hw         H          0.7784238     0.6646450     0.2418121     0.42380
Ow         O          0.6618511     0.4955687     0.1467051    -0.84760
Hw         H          0.6586211     0.5193965     0.1539202     0.42380
Hw         H          0.6603829     0.4795989     0.1635402     0.42380
Ow         O          0.8853066     0.8174982     0.1972102    -0.84760
Hw         H          0.8873620     0.7962052     0.1851852     0.42380
Hw         H          0.9035119     0.8349888     0.1893393     0.42380
Ow         O          0.6653747     0.6849240     0.2190739    -0.84760
Hw         H          0.6926826     0.6940496     0.2201670     0.42380
Hw         H          0.6636129     0.6633776     0.2304430     0.42380
Ow         O          0.6712474     0.6086242     0.2315361    -0.84760
Hw         H          0.6559784     0.5875847     0.2278193     0.42380
Hw         H          0.6938572     0.6098917     0.2175434     0.42380
Ow         O          0.9058609     0.5759243     0.3784599    -0.84760
Hw         H          0.8926474     0.5918940     0.3924527     0.42380
Hw         H          0.9331689     0.5837824     0.3747431     0.42380
Ow         O          0.9123209     0.5320709     0.3345140    -0.84760
Hw         H          0.9123209     0.5482941     0.3513490     0.42380
Hw         H          0.9205426     0.5442383     0.3163671     0.42380
Ow         O          0.7196970     0.8770678     0.2105470    -0.84760
Hw         H          0.7390768     0.8958259     0.2125148     0.42380
Hw         H          0.7326169     0.8570423     0.2013643     0.42380
Ow         O          0.5834508     0.6174963     0.2551489    -0.84760
Hw         H          0.6084097     0.6091312     0.2461848     0.42380
Hw         H          0.5872680     0.6212986     0.2765753     0.42380
Ow         O          0.9736904     0.7204123     0.3745245    -0.84760
Hw         H          0.9851421     0.7429727     0.3788972     0.42380
Hw         H          0.9766267     0.7153426     0.3533167     0.42380
Ow         O          0.7687339     0.5972173     0.2890376    -0.84760
Hw         H          0.7587503     0.5746568     0.2824785     0.42380
Hw         H          0.7763683     0.6109056     0.2715466     0.42380
Ow         O          0.8447851     0.9049515     0.3318903    -0.84760
Hw         H          0.8377378     0.9003887     0.3111199     0.42380
Hw         H          0.8535941     0.9287793     0.3340767     0.42380
Ow         O          0.6183932     0.7678146     0.3321090    -0.84760
Hw         H          0.6248532     0.7523518     0.3487253     0.42380
Hw         H          0.6213296     0.7553937     0.3133062     0.42380
Ow         O          0.9672304     0.7480425     0.2813853    -0.84760
Hw         H          0.9742777     0.7320728     0.2652062     0.42380
Hw         H          0.9408034     0.7581820     0.2774498     0.42380
Ow         O          0.7737256     0.9008956     0.3867681    -0.84760
Hw         H          0.7572821     0.9214282     0.3887358     0.42380
Hw         H          0.7889946     0.9019096     0.3679654     0.42380
Ow         O          0.9475570     0.7145821     0.1585115    -0.84760
Hw         H          0.9651750     0.6940496     0.1589488     0.42380
Hw         H          0.9593023     0.7320728     0.1453933     0.42380
Ow         O          0.8154217     0.8022889     0.3224890    -0.84760
Hw         H          0.8139535     0.8106540     0.3432594     0.42380
Hw         H          0.7901691     0.8071052     0.3124317     0.42380
Ow         O          0.6489312     0.5622359     0.1690061    -0.84760
Hw         H          0.6257341     0.5751638     0.1615724     0.42380
Hw         H          0.6462885     0.5584336     0.1904325     0.42380
Ow         O          0.6809373     0.8060912     0.3373562    -0.84760
Hw         H          0.6771200     0.8296656     0.3299226     0.42380
Hw         H          0.6562720     0.7929098     0.3345140     0.42380
Ow         O          0.8694503     0.5394220     0.2238839    -0.84760
Hw         H          0.8671012     0.5302965     0.2035507     0.42380
Hw         H          0.8688630     0.5201570     0.2380952     0.42380
Ow         O          0.7690275     0.5310569     0.3371376    -0.84760
Hw         H          0.7954545     0.5270011     0.3283921     0.42380
Hw         H          0.7713766     0.5323244     0.3587826     0.42380
Ow         O          0.7517031     0.6930357     0.3244567    -0.84760
Hw         H          0.7681466     0.7135682     0.3207399     0.42380
Hw         H          0.7690275     0.6727566     0.3251126     0.42380
Ow         O          0.6862227     0.9209212     0.3526608    -0.84760
Hw         H          0.6595020     0.9313142     0.3522235     0.42380
Hw         H          0.6841673     0.8970933     0.3596572     0.42380
Ow         O          0.7461240     0.6684473     0.1541388    -0.84760
Hw         H          0.7608057     0.6899938     0.1499847     0.42380
Hw         H          0.7202842     0.6689543     0.1436442     0.42380
Ow         O          0.7657975     0.9333421     0.2199484    -0.84760
Hw         H          0.7522903     0.9556490     0.2171061     0.42380
Hw         H          0.7948673     0.9363839     0.2184179     0.42380
Ow         O          0.8239370     0.7219333     0.1998338    -0.84760
Hw         H          0.8397933     0.7044426     0.2103284     0.42380
Hw         H          0.8145408     0.7394239     0.2142639     0.42380
Ow         O          0.5949025     0.7939238     0.1543574    -0.84760
Hw         H          0.5946089     0.7820099     0.1735974     0.42380
Hw         H          0.6189805     0.7868261     0.1432070     0.42380
Ow         O          0.7690275     0.8322005     0.3666535    -0.84760
Hw         H          0.7461240     0.8195261     0.3749617     0.42380
Hw         H          0.7681466     0.8562818     0.3734313     0.42380
Ow         O          0.6973808     0.5870777     0.1252788    -0.84760
Hw         H          0.7061898     0.5688266     0.1117233     0.42380
Hw         H          0.6859291     0.5769382     0.1434256     0.42380
Ow         O          0.6647874     0.6182567     0.2914426    -0.84760
Hw         H          0.6759455     0.6033010     0.3071844     0.42380
Hw         H          0.6765328     0.6116661     0.2722025     0.42380
Ow         O          0.7531712     0.8768143     0.2923171    -0.84760
Hw         H          0.7517031     0.8976003     0.3047794     0.42380
Hw         H          0.7793047     0.8760538     0.2824785     0.42380
Ow         O          0.2936340     0.9741840     0.3181162    -0.84760
Hw         H          0.3009749     0.9691143     0.2973458     0.42380
Hw         H          0.3147757     0.9883794     0.3272990     0.42380
Ow         O          0.0910265     0.0773138     0.7293498    -0.84760
Hw         H          0.1013037     0.0730045     0.7494643     0.42380
Hw         H          0.0651868     0.0659068     0.7267261     0.42380
Ow         O          0.0305379     0.1008881     0.6530456    -0.84760
Hw         H          0.0064599     0.1117881     0.6615724     0.42380
Hw         H          0.0223162     0.0823835     0.6392715     0.42380
Ow         O          0.1920366     0.3308016     0.7662994    -0.84760
Hw         H          0.1647287     0.3290272     0.7582098     0.42380
Hw         H          0.1952666     0.3533620     0.7759194     0.42380
Ow         O          0.5367630     0.1642601     0.6987407    -0.84760
Hw         H          0.5464529     0.1880879     0.6987407     0.42380
Hw         H          0.5517383     0.1505718     0.7131707     0.42380
Ow         O          0.2504698     0.2975947     0.7352530    -0.84760
Hw         H          0.2275664     0.3019040     0.7483712     0.42380
Hw         H          0.2604534     0.3196481     0.7273820     0.42380
Ow         O          0.2260982     0.2641343     0.6569811    -0.84760
Hw         H          0.2463589     0.2600785     0.6722856     0.42380
Hw         H          0.2046629     0.2785831     0.6652893     0.42380
Ow         O          0.0954311     0.2841598     0.7052998    -0.84760
Hw         H          0.0995419     0.2628669     0.7166689     0.42380
Hw         H          0.0792812     0.3003830     0.7173248     0.42380
Ow         O          0.4930115     0.0365022     0.8351699    -0.84760
Hw         H          0.4877261     0.0534859     0.8194280     0.42380
Hw         H          0.4921306     0.0481627     0.8546285     0.42380
Ow         O          0.5209067     0.2413204     0.6453933    -0.84760
Hw         H          0.5488020     0.2339692     0.6471424     0.42380
Hw         H          0.5185577     0.2577971     0.6289956     0.42380
Ow         O          0.0581395     0.1944251     0.8607504    -0.84760
Hw         H          0.0839793     0.1911298     0.8705890     0.42380
Hw         H          0.0543223     0.2190135     0.8559404     0.42380
Ow         O          0.2049565     0.3536155     0.6703179    -0.84760
Hw         H          0.1905685     0.3315620     0.6722856     0.42380
Hw         H          0.1982030     0.3645155     0.6512965     0.42380
Ow         O          0.3735025     0.4618548     0.8649045    -0.84760
Hw         H          0.3805497     0.4770640     0.8482881     0.42380
Hw         H          0.3755579     0.4377734     0.8583454     0.42380
Ow         O          0.5144468     0.4420827     0.6366479    -0.84760
Hw         H          0.5024078     0.4362525     0.6174078     0.42380
Hw         H          0.5091614     0.4233246     0.6508592     0.42380
Ow         O          0.2619215     0.1609648     0.8318903    -0.84760
Hw         H          0.2481207     0.1602043     0.8513490     0.42380
Hw         H          0.2469462     0.1470229     0.8174603     0.42380
Ow         O          0.3159502     0.1115346     0.7831344    -0.84760
Hw         H          0.2933404     0.1201532     0.7949407     0.42380
Hw         H          0.3059666     0.0986068     0.7658621     0.42380
Ow         O          0.0631313     0.4692059     0.8550658    -0.84760
Hw         H          0.0601950     0.4654036     0.8767108     0.42380
Hw         H          0.0378788     0.4783315     0.8471949     0.42380
Ow         O          0.4248884     0.2975947     0.6307447    -0.84760
Hw         H          0.4492600     0.2902435     0.6202501     0.42380
Hw         H          0.4105004     0.3145784     0.6185010     0.42380
Ow         O          0.1864576     0.0572882     0.7050811    -0.84760
Hw         H          0.1849894     0.0560208     0.7269448     0.42380
Hw         H          0.1870449     0.0816231     0.6987407     0.42380
Ow         O          0.5520319     0.2778226     0.7024575    -0.84760
Hw         H          0.5338266     0.2740203     0.6858411     0.42380
Hw         H          0.5367630     0.2806110     0.7210416     0.42380
Ow         O          0.4530773     0.1939182     0.6707552    -0.84760
Hw         H          0.4516091     0.1774415     0.6871529     0.42380
Hw         H          0.4765680     0.2088739     0.6735974     0.42380
Ow         O          0.0842730     0.0798487     0.8391053    -0.84760
Hw         H          0.0607822     0.0950579     0.8362631     0.42380
Hw         H          0.0813366     0.0674278     0.8579081     0.42380
Ow         O          0.0980738     0.4600804     0.7829157    -0.84760
Hw         H          0.1148109     0.4436037     0.7938476     0.42380
Hw         H          0.0933756     0.4517153     0.7625825     0.42380
Ow         O          0.3009749     0.4380269     0.7092352    -0.84760
Hw         H          0.3244656     0.4235781     0.7138266     0.42380
Hw         H          0.2865868     0.4278874     0.6924002     0.42380
Ow         O          0.2857059     0.3913852     0.7728585    -0.84760
Hw         H          0.2789523     0.3850480     0.7523066     0.42380
Hw         H          0.3036176     0.3738945     0.7813853     0.42380
Ow         O          0.4216584     0.1571624     0.8248940    -0.84760
Hw         H          0.4298802     0.1462625     0.8434781     0.42380
Hw         H          0.4289993     0.1814973     0.8251126     0.42380
Ow         O          0.2956895     0.1351090     0.7081420    -0.84760
Hw         H          0.2883486     0.1328276     0.6871529     0.42380
Hw         H          0.3097839     0.1143230     0.7149198     0.42380
Ow         O          0.3409091     0.1807368     0.8316717    -0.84760
Hw         H          0.3174184     0.1652740     0.8323276     0.42380
Hw         H          0.3646934     0.1673019     0.8264244     0.42380
Ow         O          0.3852478     0.4055805     0.6849665    -0.84760
Hw         H          0.3914141     0.4243386     0.6707552     0.42380
Hw         H          0.4052149     0.4055805     0.7009270     0.42380
Ow         O          0.1597369     0.2996226     0.6735974    -0.84760
Hw         H          0.1388889     0.2927784     0.6878088     0.42380
Hw         H          0.1521024     0.2925249     0.6532642     0.42380
Ow         O          0.0478623     0.1485439     0.8146180    -0.84760
Hw         H          0.0748767     0.1482904     0.8056539     0.42380
Hw         H          0.0461005     0.1673019     0.8292667     0.42380
Ow         O          0.1896876     0.0638789     0.7623639    -0.84760
Hw         H          0.2008457     0.0425860     0.7704535     0.42380
Hw         H          0.1638478     0.0686952     0.7719839     0.42380
Ow         O          0.2792459     0.1226881     0.6519524    -0.84760
Hw         H          0.2698497     0.1409392     0.6383970     0.42380
Hw         H          0.2862932     0.1021556     0.6403647     0.42380
Ow         O          0.3235847     0.0174907     0.6762211    -0.84760
Hw         H          0.3024430     0.0187581     0.6611352     0.42380
Hw         H          0.3165375    -0.0000000     0.6913070     0.42380
Ow         O          0.4445619     0.3049458     0.7011457    -0.84760
Hw         H          0.4284120     0.2836529     0.6996152     0.42380
Hw         H          0.4521964     0.3122970     0.6810311     0.42380
Ow         O          0.4554264     0.1571624     0.7284752    -0.84760
Hw         H          0.4466173     0.1330811     0.7300057     0.42380
Hw         H          0.4768616     0.1612182     0.7429052     0.42380
Ow         O          0.5399930     0.3176202     0.8587826    -0.84760
Hw         H          0.5667136     0.3077342     0.8559404     0.42380
Hw         H          0.5423420     0.3419550     0.8640299     0.42380
Ow         O          0.3373855     0.3490527     0.8045608    -0.84760
Hw         H          0.3138948     0.3432225     0.8165858     0.42380
Hw         H          0.3617571     0.3424620     0.8152740     0.42380
Ow         O          0.4924242     0.4205363     0.8668722    -0.84760
Hw         H          0.5003524     0.4291548     0.8471949     0.42380
Hw         H          0.5156213     0.4109037     0.8769295     0.42380
Ow         O          0.3511863     0.3105226     0.7520880    -0.84760
Hw         H          0.3394409     0.3216760     0.7697975     0.42380
Hw         H          0.3391473     0.3199016     0.7339411     0.42380
Ow         O          0.5059314     0.2861877     0.7474966    -0.84760
Hw         H          0.5073996     0.3067202     0.7603962     0.42380
Hw         H          0.4806789     0.2866947     0.7363461     0.42380
Ow         O          0.2936340     0.0301650     0.8181162    -0.84760
Hw         H          0.3009749     0.0250953     0.7973458     0.42380
Hw         H          0.3147757     0.0443604     0.8272990     0.42380
Ow         O          0.1453488     0.2136902     0.7851021    -0.84760
Hw         H          0.1706014     0.2167321     0.7960339     0.42380
Hw         H          0.1330162     0.1916368     0.7910053     0.42380
Ow         O          0.3990486     0.1054509     0.7875071    -0.84760
Hw         H          0.4052149     0.1242090     0.8014998     0.42380
Hw         H          0.3729152     0.1097602     0.7781057     0.42380
Ow         O          0.0437515     0.4040596     0.8025930    -0.84760
Hw         H          0.0302443     0.4248456     0.7951594     0.42380
Hw         H          0.0725276     0.4088758     0.8045608     0.42380
Ow         O          0.3984614     0.3738945     0.7612707    -0.84760
Hw         H          0.4122622     0.3771898     0.7802921     0.42380
Hw         H          0.3790815     0.3551364     0.7632384     0.42380
Ow         O          0.1289053     0.3903712     0.8021558    -0.84760
Hw         H          0.1227390     0.3792178     0.7831344     0.42380
Hw         H          0.1573878     0.3969619     0.8028117     0.42380
Ow         O          0.1429998     0.1979740     0.8609690    -0.84760
Hw         H          0.1629669     0.2119158     0.8506931     0.42380
Hw         H          0.1547451     0.1756670     0.8668722     0.42380
Ow         O          0.4909561     0.2050716     0.8767108    -0.84760
Hw         H          0.4639417     0.2147042     0.8756176     0.42380
Hw         H          0.5085741     0.2169856     0.8624995     0.42380
Ow         O          0.1932112     0.2281390     0.7365648    -0.84760
Hw         H          0.2061311     0.2506994     0.7345971     0.42380
Hw         H          0.1747122     0.2281390     0.7533998     0.42380
Ow         O          0.4243012     0.2261111     0.7400630    -0.84760
Hw         H          0.4022786     0.2261111     0.7256330     0.42380
Hw         H          0.4351656     0.2027902     0.7420307     0.42380
Ow         O          0.1151045     0.0615975     0.7807294    -0.84760
Hw         H          0.1083510     0.0709766     0.8004067     0.42380
Hw         H          0.1062955     0.0375162     0.7794176     0.42380
Ow         O          0.0358233     0.3396737     0.7918798    -0.84760
Hw         H          0.0513860     0.3272528     0.8067471     0.42380
Hw         H          0.0422833     0.3645155     0.7929730     0.42380
Ow         O          0.2398990     0.1683159     0.7442171    -0.84760
Hw         H          0.2572234     0.1617252     0.7276007     0.42380
Hw         H          0.2316772     0.1926507     0.7418121     0.42380
Ow         O          0.1151045     0.0235744     0.6467051    -0.84760
Hw         H          0.1118746     0.0474022     0.6539202     0.42380
Hw         H          0.1136364     0.0076046     0.6635402     0.42380
Ow         O          0.3253465     0.2017763     0.7227907    -0.84760
Hw         H          0.3297510     0.2070995     0.7437798     0.42380
Hw         H          0.3165375     0.1776949     0.7208229     0.42380
Ow         O          0.0240780     0.3923991     0.8624995    -0.84760
Hw         H          0.0281889     0.3992433     0.8417290     0.42380
Hw         H          0.0484496     0.3979758     0.8740872     0.42380
Ow         O          0.3385600     0.3455039     0.6972102    -0.84760
Hw         H          0.3406155     0.3242109     0.6851852     0.42380
Hw         H          0.3567653     0.3629945     0.6893393     0.42380
Ow         O          0.1186281     0.2129298     0.7190739    -0.84760
Hw         H          0.1459361     0.2220553     0.7201670     0.42380
Hw         H          0.1168663     0.1913833     0.7304430     0.42380
Ow         O          0.1245008     0.1366299     0.7315361    -0.84760
Hw         H          0.1092319     0.1155904     0.7278193     0.42380
Hw         H          0.1471106     0.1378974     0.7175434     0.42380
Ow         O          0.3591144     0.1039300     0.8784599    -0.84760
Hw         H          0.3459009     0.1198997     0.8924527     0.42380
Hw         H          0.3864224     0.1117881     0.8747431     0.42380
Ow         O          0.3655743     0.0600766     0.8345140    -0.84760
Hw         H          0.3655743     0.0762998     0.8513490     0.42380
Hw         H          0.3737961     0.0722440     0.8163671     0.42380
Ow         O          0.0507987     0.4641362     0.7142639    -0.84760
Hw         H          0.0384661     0.4423362     0.7083607     0.42380
Hw         H          0.0784003     0.4648966     0.7068302     0.42380
Ow         O          0.3191802     0.2093809     0.7822598    -0.84760
Hw         H          0.3312192     0.2012693     0.8010626     0.42380
Hw         H          0.2909913     0.2025368     0.7816039     0.42380
Ow         O          0.0367043     0.1455020     0.7551489    -0.84760
Hw         H          0.0616631     0.1371369     0.7461848     0.42380
Hw         H          0.0405215     0.1493043     0.7765753     0.42380
Ow         O          0.4269439     0.2484180     0.8745245    -0.84760
Hw         H          0.4383956     0.2709785     0.8788972     0.42380
Hw         H          0.4298802     0.2433483     0.8533167     0.42380
Ow         O          0.5115105     0.1607113     0.7752635    -0.84760
Hw         H          0.5003524     0.1432206     0.7888189     0.42380
Hw         H          0.5355884     0.1515857     0.7656434     0.42380
Ow         O          0.2980385     0.4329572     0.8318903    -0.84760
Hw         H          0.2909913     0.4283944     0.8111199     0.42380
Hw         H          0.3068475     0.4567850     0.8340767     0.42380
Ow         O          0.0716467     0.2958203     0.8321090    -0.84760
Hw         H          0.0781066     0.2803575     0.8487253     0.42380
Hw         H          0.0745830     0.2833994     0.8133062     0.42380
Ow         O          0.4204839     0.2760482     0.7813853    -0.84760
Hw         H          0.4275311     0.2600785     0.7652062     0.42380
Hw         H          0.3940568     0.2861877     0.7774498     0.42380
Ow         O          0.5414611     0.4504478     0.7638944    -0.84760
Hw         H          0.5593728     0.4580525     0.7479339     0.42380
Hw         H          0.5303030     0.4278874     0.7590843     0.42380
Ow         O          0.3925887     0.4463920     0.7582098    -0.84760
Hw         H          0.4172539     0.4476595     0.7464034     0.42380
Hw         H          0.3858351     0.4220572     0.7621453     0.42380
Ow         O          0.2269791     0.4289014     0.8867681    -0.84760
Hw         H          0.2105356     0.4494339     0.8887358     0.42380
Hw         H          0.2422481     0.4299153     0.8679654     0.42380
Ow         O          0.5317712     0.0418255     0.6259347    -0.84760
Hw         H          0.5532065     0.0375162     0.6112860     0.42380
Hw         H          0.5226685     0.0197720     0.6342429     0.42380
Ow         O          0.4325229     0.4063409     0.6158774    -0.84760
Hw         H          0.4521964     0.4093828     0.5996983     0.42380
Hw         H          0.4207775     0.4289014     0.6209060     0.42380
Ow         O          0.4008104     0.2425878     0.6585115    -0.84760
Hw         H          0.4184285     0.2220553     0.6589488     0.42380
Hw         H          0.4125558     0.2600785     0.6453933     0.42380
Ow         O          0.5094550     0.4436037     0.8163671    -0.84760
Hw         H          0.5250176     0.4461385     0.7980017     0.42380
Hw         H          0.5015269     0.4664176     0.8238008     0.42380
Ow         O          0.1021846     0.0902417     0.6690061    -0.84760
Hw         H          0.0789875     0.1031695     0.6615724     0.42380
Hw         H          0.0995419     0.0864393     0.6904325     0.42380
Ow         O          0.2663261     0.2615994     0.8115571    -0.84760
Hw         H          0.2780714     0.2613459     0.7914426     0.42380
Hw         H          0.2692624     0.2849203     0.8203026     0.42380
Ow         O          0.1341907     0.3340969     0.8373562    -0.84760
Hw         H          0.1303735     0.3576713     0.8299226     0.42380
Hw         H          0.1095255     0.3209156     0.8345140     0.42380
Ow         O          0.3227038     0.0674278     0.7238839    -0.84760
Hw         H          0.3203547     0.0583022     0.7035507     0.42380
Hw         H          0.3221165     0.0481627     0.7380952     0.42380
Ow         O          0.5267794     0.1051974     0.8135249    -0.84760
Hw         H          0.5482147     0.1226881     0.8143994     0.42380
Hw         H          0.5350012     0.0861859     0.8006253     0.42380
Ow         O          0.2222809     0.0590627     0.8371376    -0.84760
Hw         H          0.2487080     0.0550069     0.8283921     0.42380
Hw         H          0.2246300     0.0603301     0.8587826     0.42380
Ow         O          0.2049565     0.2210414     0.8244567    -0.84760
Hw         H          0.2214000     0.2415739     0.8207399     0.42380
Hw         H          0.2222809     0.2007623     0.8251126     0.42380
Ow         O          0.4633545     0.4555176     0.7212602    -0.84760
Hw         H          0.4730444     0.4717408     0.7061743     0.42380
Hw         H          0.4827343     0.4539967     0.7376580     0.42380
Ow         O          0.1394762     0.4489269     0.8526608    -0.84760
Hw         H          0.1127555     0.4593199     0.8522235     0.42380
Hw         H          0.1374207     0.4250990     0.8596572     0.42380
Ow         O          0.5165022     0.2314344     0.7857580    -0.84760
Hw         H          0.5085741     0.2088739     0.7776685     0.42380
Hw         H          0.5167959     0.2486715     0.7697975     0.42380
Ow         O          0.1993775     0.1964530     0.6541388    -0.84760
Hw         H          0.2140592     0.2179995     0.6499847     0.42380
Hw         H          0.1735377     0.1969600     0.6436442     0.42380
Ow         O          0.5467465     0.0942975     0.8705890    -0.84760
Hw         H          0.5417548     0.1021556     0.8500372     0.42380
Hw         H          0.5220813     0.0849184     0.8788972     0.42380
Ow         O          0.5329457     0.2443622     0.8432594    -0.84760
Hw         H          0.5441038     0.2674296     0.8465390     0.42380
Hw         H          0.5305967     0.2400529     0.8216144     0.42380
Ow         O          0.2771905     0.2499390     0.6998338    -0.84760
Hw         H          0.2930467     0.2324483     0.7103284     0.42380
Hw         H          0.2677942     0.2674296     0.7142639     0.42380
Ow         O          0.0246653     0.4053270     0.6976475    -0.84760
Hw         H          0.0038172     0.4022851     0.6823429     0.42380
Hw         H          0.0249589     0.3853015     0.7107657     0.42380
Ow         O          0.2222809     0.3602062     0.8666535    -0.84760
Hw         H          0.1993775     0.3475318     0.8749617     0.42380
Hw         H          0.2214000     0.3842875     0.8734313     0.42380
Ow         O          0.5605473     0.0562743     0.7798548    -0.84760
Hw         H          0.5593728     0.0334604     0.7894748     0.42380
Hw         H          0.5614282     0.0534859     0.7582098     0.42380
Ow         O          0.1180409     0.1462625     0.7914426    -0.84760
Hw         H          0.1291990     0.1313067     0.8071844     0.42380
Hw         H          0.1297862     0.1396718     0.7722025     0.42380
Ow         O          0.4430937     0.0618510     0.7547116    -0.84760
Hw         H          0.4583627     0.0453743     0.7667366     0.42380
Hw         H          0.4287057     0.0778208     0.7680484     0.42380
Ow         O          0.3188865     0.4882175     0.7638944    -0.84760
Hw         H          0.3003876     0.4699664     0.7571166     0.42380
Hw         H          0.3461945     0.4790919     0.7638944     0.42380
Ow         O          0.2064247     0.4048200     0.7923171    -0.84760
Hw         H          0.2049565     0.4256060     0.8047794     0.42380
Hw         H          0.2325581     0.4040596     0.7824785     0.42380
Ow         O          0.4066831     0.1224346     0.6626656    -0.84760
Hw         H          0.3893587     0.1427136     0.6635402     0.42380
Hw         H          0.4110876     0.1135625     0.6829988     0.42380
Ow         O          0.4927179     0.0636254     0.7044252    -0.84760
Hw         H          0.4680526     0.0633720     0.7162316     0.42380
Hw         H          0.4933051     0.0846649     0.6921816     0.42380
Ow         O          0.6377731     0.0773138     0.7293498    -0.84760
Hw         H          0.6480503     0.0730045     0.7494643     0.42380
Hw         H          0.6119333     0.0659068     0.7267261     0.42380
Ow         O          0.5772845     0.1008881     0.6530456    -0.84760
Hw         H          0.5532065     0.1117881     0.6615724     0.42380
Hw         H          0.5690627     0.0823835     0.6392715     0.42380
Ow         O          0.7387832     0.3308016     0.7662994    -0.84760
Hw         H          0.7114752     0.3290272     0.7582098     0.42380
Hw         H          0.7420132     0.3533620     0.7759194     0.42380
Ow         O          0.7972163     0.2975947     0.7352530    -0.84760
Hw         H          0.7743129     0.3019040     0.7483712     0.42380
Hw         H          0.8071999     0.3196481     0.7273820     0.42380
Ow         O          0.7728447     0.2641343     0.6569811    -0.84760
Hw         H          0.7931055     0.2600785     0.6722856     0.42380
Hw         H          0.7514094     0.2785831     0.6652893     0.42380
Ow         O          0.6700728     0.3713596     0.7435612    -0.84760
Hw         H          0.6471694     0.3635015     0.7319734     0.42380
Hw         H          0.6871036     0.3860619     0.7310989     0.42380
Ow         O          0.7003171     0.1069719     0.8393240    -0.84760
Hw         H          0.7243951     0.0927765     0.8412917     0.42380
Hw         H          0.6765328     0.0922696     0.8401985     0.42380
Ow         O          0.9026310     0.3475318     0.8810836    -0.84760
Hw         H          0.9164318     0.3475318     0.9003236     0.42380
Hw         H          0.8885365     0.3254783     0.8786786     0.42380
Ow         O          0.6392412     0.3711061     0.6292142    -0.84760
Hw         H          0.6316068     0.3954410     0.6292142     0.42380
Hw         H          0.6183932     0.3574178     0.6390529     0.42380
Ow         O          0.6421776     0.2841598     0.7052998    -0.84760
Hw         H          0.6462885     0.2628669     0.7166689     0.42380
Hw         H          0.6260277     0.3003830     0.7173248     0.42380
Ow         O          0.7537585     0.4603338     0.8262058    -0.84760
Hw         H          0.7267442     0.4560246     0.8338581     0.42380
Hw         H          0.7619803     0.4836547     0.8318903     0.42380
Ow         O          0.6048861     0.1944251     0.8607504    -0.84760
Hw         H          0.6307259     0.1911298     0.8705890     0.42380
Hw         H          0.6010688     0.2190135     0.8559404     0.42380
Ow         O          0.7517031     0.3536155     0.6703179    -0.84760
Hw         H          0.7373150     0.3315620     0.6722856     0.42380
Hw         H          0.7449495     0.3645155     0.6512965     0.42380
Ow         O          0.9513742     0.3188877     0.8227076    -0.84760
Hw         H          0.9622387     0.3003830     0.8100267     0.42380
Hw         H          0.9666432     0.3201551     0.8412917     0.42380
Ow         O          0.8092553     0.4806129     0.6213433    -0.84760
Hw         H          0.8210007     0.5036803     0.6193756     0.42380
Hw         H          0.7798919     0.4826408     0.6226551     0.42380
Ow         O          0.6295513     0.2550087     0.7879444    -0.84760
Hw         H          0.6556848     0.2436018     0.7848835     0.42380
Hw         H          0.6081160     0.2385320     0.7837903     0.42380
Ow         O          0.9478506     0.0950579     0.7179807    -0.84760
Hw         H          0.9225981     0.0823835     0.7151384     0.42380
Hw         H          0.9660559     0.0813696     0.7302243     0.42380
Ow         O          0.8086681     0.1609648     0.8318903    -0.84760
Hw         H          0.7948673     0.1602043     0.8513490     0.42380
Hw         H          0.7936927     0.1470229     0.8174603     0.42380
Ow         O          0.8574113     0.2332088     0.8552844    -0.84760
Hw         H          0.8709185     0.2119158     0.8489440     0.42380
Hw         H          0.8409678     0.2418274     0.8388867     0.42380
Ow         O          0.5940216     0.2131832     0.6840920    -0.84760
Hw         H          0.6230914     0.2101414     0.6860597     0.42380
Hw         H          0.5869744     0.2372646     0.6886834     0.42380
Ow         O          0.6098778     0.4692059     0.8550658    -0.84760
Hw         H          0.6069415     0.4654036     0.8767108     0.42380
Hw         H          0.5846253     0.4783315     0.8471949     0.42380
Ow         O          0.6747710     0.4641362     0.6980847    -0.84760
Hw         H          0.6894527     0.4423362     0.6993966     0.42380
Hw         H          0.6938572     0.4836547     0.6974288     0.42380
Ow         O          0.9319944     0.4005107     0.8408544    -0.84760
Hw         H          0.9337562     0.3809922     0.8548472     0.42380
Hw         H          0.9167254     0.3939200     0.8233635     0.42380
Ow         O          0.7070707     0.3285202     0.8891731    -0.84760
Hw         H          0.6923890     0.3287737     0.8703704     0.42380
Hw         H          0.6885718     0.3239574     0.9057895     0.42380
Ow         O          0.6310195     0.0798487     0.8391053    -0.84760
Hw         H          0.6075288     0.0950579     0.8362631     0.42380
Hw         H          0.6280832     0.0674278     0.8579081     0.42380
Ow         O          0.6448203     0.4600804     0.7829157    -0.84760
Hw         H          0.6615574     0.4436037     0.7938476     0.42380
Hw         H          0.6401222     0.4517153     0.7625825     0.42380
Ow         O          0.8477214     0.4380269     0.7092352    -0.84760
Hw         H          0.8712121     0.4235781     0.7138266     0.42380
Hw         H          0.8333333     0.4278874     0.6924002     0.42380
Ow         O          0.9684050     0.1571624     0.8248940    -0.84760
Hw         H          0.9766267     0.1462625     0.8434781     0.42380
Hw         H          0.9757458     0.1814973     0.8251126     0.42380
Ow         O          0.8074935     0.3629945     0.7136079    -0.84760
Hw         H          0.8339206     0.3665434     0.7044252     0.42380
Hw         H          0.7866455     0.3635015     0.6980847     0.42380
Ow         O          0.7299742     0.0238279     0.6235297    -0.84760
Hw         H          0.7061898     0.0240813     0.6362106     0.42380
Hw         H          0.7308551     0.0448673     0.6115047     0.42380
Ow         O          0.9319944     0.4055805     0.6849665    -0.84760
Hw         H          0.9381607     0.4243386     0.6707552     0.42380
Hw         H          0.9519615     0.4055805     0.7009270     0.42380
Ow         O          0.7064834     0.2996226     0.6735974    -0.84760
Hw         H          0.6856354     0.2927784     0.6878088     0.42380
Hw         H          0.6988490     0.2925249     0.6532642     0.42380
Ow         O          0.9449143     0.4631222     0.6408020    -0.84760
Hw         H          0.9578342     0.4793454     0.6268092     0.42380
Hw         H          0.9302326     0.4763036     0.6561065     0.42380
Ow         O          0.5946089     0.1485439     0.8146180    -0.84760
Hw         H          0.6216232     0.1482904     0.8056539     0.42380
Hw         H          0.5928471     0.1673019     0.8292667     0.42380
Ow         O          0.7364341     0.0638789     0.7623639    -0.84760
Hw         H          0.7475922     0.0425860     0.7704535     0.42380
Hw         H          0.7105943     0.0686952     0.7719839     0.42380
Ow         O          0.8841320     0.3490527     0.8045608    -0.84760
Hw         H          0.8606413     0.3432225     0.8165858     0.42380
Hw         H          0.9085036     0.3424620     0.8152740     0.42380
Ow         O          0.8979328     0.3105226     0.7520880    -0.84760
Hw         H          0.8861875     0.3216760     0.7697975     0.42380
Hw         H          0.8858938     0.3199016     0.7339411     0.42380
Ow         O          0.8403805     0.0301650     0.8181162    -0.84760
Hw         H          0.8477214     0.0250953     0.7973458     0.42380
Hw         H          0.8615222     0.0443604     0.8272990     0.42380
Ow         O          0.6920954     0.2136902     0.7851021    -0.84760
Hw         H          0.7173479     0.2167321     0.7960339     0.42380
Hw         H          0.6797627     0.1916368     0.7910053     0.42380
Ow         O          0.9457952     0.1054509     0.7875071    -0.84760
Hw         H          0.9519615     0.1242090     0.8014998     0.42380
Hw         H          0.9196617     0.1097602     0.7781057     0.42380
Ow         O          0.5904980     0.4040596     0.8025930    -0.84760
Hw         H          0.5769908     0.4248456     0.7951594     0.42380
Hw         H          0.6192741     0.4088758     0.8045608     0.42380
Ow         O          0.6794691     0.2864412     0.6211247    -0.84760
Hw         H          0.6774137     0.3074807     0.6088810     0.42380
Hw         H          0.6806436     0.2661622     0.6080065     0.42380
Ow         O          0.7379023     0.1437276     0.7007084    -0.84760
Hw         H          0.7414259     0.1604578     0.6845293     0.42380
Hw         H          0.7514094     0.1523462     0.7188552     0.42380
Ow         O          0.7399577     0.2281390     0.7365648    -0.84760
Hw         H          0.7528776     0.2506994     0.7345971     0.42380
Hw         H          0.7214588     0.2281390     0.7533998     0.42380
Ow         O          0.6618511     0.0615975     0.7807294    -0.84760
Hw         H          0.6550975     0.0709766     0.8004067     0.42380
Hw         H          0.6530420     0.0375162     0.7794176     0.42380
Ow         O          0.8720930     0.2017763     0.7227907    -0.84760
Hw         H          0.8764975     0.2070995     0.7437798     0.42380
Hw         H          0.8632840     0.1776949     0.7208229     0.42380
Ow         O          0.8853066     0.3455039     0.6972102    -0.84760
Hw         H          0.8873620     0.3242109     0.6851852     0.42380
Hw         H          0.9035119     0.3629945     0.6893393     0.42380
Ow         O          0.6653747     0.2129298     0.7190739    -0.84760
Hw         H          0.6926826     0.2220553     0.7201670     0.42380
Hw         H          0.6636129     0.1913833     0.7304430     0.42380
Ow         O          0.6712474     0.1366299     0.7315361    -0.84760
Hw         H          0.6559784     0.1155904     0.7278193     0.42380
Hw         H          0.6938572     0.1378974     0.7175434     0.42380
Ow         O          0.7217524     0.1128021     0.9068827    -0.84760
Hw         H          0.7164670     0.1242090     0.9261227     0.42380
Hw         H          0.7340850     0.1292788     0.8931086     0.42380
Ow         O          0.9058609     0.1039300     0.8784599    -0.84760
Hw         H          0.8926474     0.1198997     0.8924527     0.42380
Hw         H          0.9331689     0.1117881     0.8747431     0.42380
Ow         O          0.9123209     0.0600766     0.8345140    -0.84760
Hw         H          0.9123209     0.0762998     0.8513490     0.42380
Hw         H          0.9205426     0.0722440     0.8163671     0.42380
Ow         O          0.5975452     0.4641362     0.7142639    -0.84760
Hw         H          0.5852126     0.4423362     0.7083607     0.42380
Hw         H          0.6251468     0.4648966     0.7068302     0.42380
Ow         O          0.7196970     0.4050735     0.7105470    -0.84760
Hw         H          0.7390768     0.4238316     0.7125148     0.42380
Hw         H          0.7326169     0.3850480     0.7013643     0.42380
Ow         O          0.8659267     0.2093809     0.7822598    -0.84760
Hw         H          0.8779657     0.2012693     0.8010626     0.42380
Hw         H          0.8377378     0.2025368     0.7816039     0.42380
Ow         O          0.5834508     0.1455020     0.7551489    -0.84760
Hw         H          0.6084097     0.1371369     0.7461848     0.42380
Hw         H          0.5872680     0.1493043     0.7765753     0.42380
Ow         O          0.9736904     0.2484180     0.8745245    -0.84760
Hw         H          0.9851421     0.2709785     0.8788972     0.42380
Hw         H          0.9766267     0.2433483     0.8533167     0.42380
Ow         O          0.7687339     0.1252230     0.7890376    -0.84760
Hw         H          0.7587503     0.1026626     0.7824785     0.42380
Hw         H          0.7763683     0.1389113     0.7715466     0.42380
Ow         O          0.8447851     0.4329572     0.8318903    -0.84760
Hw         H          0.8377378     0.4283944     0.8111199     0.42380
Hw         H          0.8535941     0.4567850     0.8340767     0.42380
Ow         O          0.9672304     0.2760482     0.7813853    -0.84760
Hw         H          0.9742777     0.2600785     0.7652062     0.42380
Hw         H          0.9408034     0.2861877     0.7774498     0.42380
Ow         O          0.9393352     0.4463920     0.7582098    -0.84760
Hw         H          0.9640005     0.4476595     0.7464034     0.42380
Hw         H          0.9325816     0.4220572     0.7621453     0.42380
Ow         O          0.5960770     0.3264923     0.7350343    -0.84760
Hw         H          0.5946089     0.3262388     0.7568980     0.42380
Hw         H          0.5717054     0.3160993     0.7267261     0.42380
Ow         O          0.9475570     0.2425878     0.6585115    -0.84760
Hw         H          0.9651750     0.2220553     0.6589488     0.42380
Hw         H          0.9593023     0.2600785     0.6453933     0.42380
Ow         O          0.6489312     0.0902417     0.6690061    -0.84760
Hw         H          0.6257341     0.1031695     0.6615724     0.42380
Hw         H          0.6462885     0.0864393     0.6904325     0.42380
Ow         O          0.8767912     0.2859342     0.6637588    -0.84760
Hw         H          0.8562368     0.2740203     0.6755652     0.42380
Hw         H          0.8941156     0.2686971     0.6543574     0.42380
Ow         O          0.8694503     0.0674278     0.7238839    -0.84760
Hw         H          0.8671012     0.0583022     0.7035507     0.42380
Hw         H          0.8688630     0.0481627     0.7380952     0.42380
Ow         O          0.7449495     0.3845410     0.6189383    -0.84760
Hw         H          0.7572821     0.3698387     0.6036337     0.42380
Hw         H          0.7320296     0.4045665     0.6093183     0.42380
Ow         O          0.7517031     0.2210414     0.8244567    -0.84760
Hw         H          0.7681466     0.2415739     0.8207399     0.42380
Hw         H          0.7690275     0.2007623     0.8251126     0.42380
Ow         O          0.7461240     0.1964530     0.6541388    -0.84760
Hw         H          0.7608057     0.2179995     0.6499847     0.42380
Hw         H          0.7202842     0.1969600     0.6436442     0.42380
Ow         O          0.8239370     0.2499390     0.6998338    -0.84760
Hw         H          0.8397933     0.2324483     0.7103284     0.42380
Hw         H          0.8145408     0.2674296     0.7142639     0.42380
Ow         O          0.5949025     0.3219295     0.6543574    -0.84760
Hw         H          0.5946089     0.3100156     0.6735974     0.42380
Hw         H          0.6189805     0.3148319     0.6432070     0.42380
Ow         O          0.7690275     0.3602062     0.8666535    -0.84760
Hw         H          0.7461240     0.3475318     0.8749617     0.42380
Hw         H          0.7681466     0.3842875     0.8734313     0.42380
Ow         O          0.6647874     0.1462625     0.7914426    -0.84760
Hw         H          0.6759455     0.1313067     0.8071844     0.42380
Hw         H          0.6765328     0.1396718     0.7722025     0.42380
Ow         O          0.8101362     0.4096363     0.6617911    -0.84760
Hw         H          0.8195325     0.4121712     0.6412392     0.42380
Hw         H          0.7869392     0.3939200     0.6622283     0.42380
Ow         O          0.8656331     0.4882175     0.7638944    -0.84760
Hw         H          0.8471341     0.4699664     0.7571166     0.42380
Hw         H          0.8929410     0.4790919     0.7638944     0.42380
Ow         O          0.7531712     0.4048200     0.7923171    -0.84760
Hw         H          0.7517031     0.4256060     0.8047794     0.42380
Hw         H          0.7793047     0.4040596     0.7824785     0.42380
Ow         O          0.9534296     0.1224346     0.6626656    -0.84760
Hw         H          0.9361052     0.1427136     0.6635402     0.42380
Hw         H          0.9578342     0.1135625     0.6829988     0.42380
Ow         O          0.0910265     0.5493081     0.7293498    -0.84760
Hw         H          0.1013037     0.5449988     0.7494643     0.42380
Hw         H          0.0651868     0.5379011     0.7267261     0.42380
Ow         O          0.0305379     0.5728824     0.6530456    -0.84760
Hw         H          0.0064599     0.5837824     0.6615724     0.42380
Hw         H          0.0223162     0.5543778     0.6392715     0.42380
Ow         O          0.5367630     0.6362544     0.6987407    -0.84760
Hw         H          0.5464529     0.6600822     0.6987407     0.42380
Hw         H          0.5517383     0.6225660     0.7131707     0.42380
Ow         O          0.2260982     0.7361286     0.6569811    -0.84760
Hw         H          0.2463589     0.7320728     0.6722856     0.42380
Hw         H          0.2046629     0.7505774     0.6652893     0.42380
Ow         O          0.1233263     0.8433539     0.7435612    -0.84760
Hw         H          0.1004228     0.8354958     0.7319734     0.42380
Hw         H          0.1403571     0.8580562     0.7310989     0.42380
Ow         O          0.1535706     0.5789661     0.8393240    -0.84760
Hw         H          0.1776486     0.5647708     0.8412917     0.42380
Hw         H          0.1297862     0.5642638     0.8401985     0.42380
Ow         O          0.4956542     0.5929080     0.6727229    -0.84760
Hw         H          0.4739253     0.6045684     0.6617911     0.42380
Hw         H          0.5106296     0.6101451     0.6843106     0.42380
Ow         O          0.0927883     0.9138235     0.6171892    -0.84760
Hw         H          0.1027719     0.9333421     0.6289956     0.42380
Hw         H          0.1057082     0.9138235     0.5975119     0.42380
Ow         O          0.0924947     0.8431004     0.6292142    -0.84760
Hw         H          0.0848602     0.8674353     0.6292142     0.42380
Hw         H          0.0716467     0.8294121     0.6390529     0.42380
Ow         O          0.0954311     0.7561541     0.7052998    -0.84760
Hw         H          0.0995419     0.7348611     0.7166689     0.42380
Hw         H          0.0792812     0.7723773     0.7173248     0.42380
Ow         O          0.4930115     0.5084965     0.8351699    -0.84760
Hw         H          0.4877261     0.5254802     0.8194280     0.42380
Hw         H          0.4921306     0.5201570     0.8546285     0.42380
Ow         O          0.0607822     0.6425916     0.6346801    -0.84760
Hw         H          0.0475687     0.6202847     0.6383970     0.42380
Hw         H          0.0604886     0.6562799     0.6530456     0.42380
Ow         O          0.5068123     0.7604634     0.6060387    -0.84760
Hw         H          0.5320648     0.7609704     0.5946696     0.42380
Hw         H          0.5109232     0.7723773     0.6252788     0.42380
Ow         O          0.0581395     0.6664194     0.8607504    -0.84760
Hw         H          0.0839793     0.6631241     0.8705890     0.42380
Hw         H          0.0543223     0.6910077     0.8559404     0.42380
Ow         O          0.2049565     0.8256098     0.6703179    -0.84760
Hw         H          0.1905685     0.8035563     0.6722856     0.42380
Hw         H          0.1982030     0.8365097     0.6512965     0.42380
Ow         O          0.4046277     0.7908819     0.8227076    -0.84760
Hw         H          0.4154921     0.7723773     0.8100267     0.42380
Hw         H          0.4198966     0.7921494     0.8412917     0.42380
Ow         O          0.5144468     0.9140770     0.6366479    -0.84760
Hw         H          0.5024078     0.9082468     0.6174078     0.42380
Hw         H          0.5091614     0.8953189     0.6508592     0.42380
Ow         O          0.4011041     0.5670522     0.7179807    -0.84760
Hw         H          0.3758515     0.5543778     0.7151384     0.42380
Hw         H          0.4193094     0.5533639     0.7302243     0.42380
Ow         O          0.2619215     0.6329590     0.8318903    -0.84760
Hw         H          0.2481207     0.6321986     0.8513490     0.42380
Hw         H          0.2469462     0.6190172     0.8174603     0.42380
Ow         O          0.4342847     0.5984847     0.8775854    -0.84760
Hw         H          0.4284120     0.6093847     0.8968254     0.42380
Hw         H          0.4571882     0.5827685     0.8795531     0.42380
Ow         O          0.3159502     0.5835289     0.7831344    -0.84760
Hw         H          0.2933404     0.5921475     0.7949407     0.42380
Hw         H          0.3059666     0.5706010     0.7658621     0.42380
Ow         O          0.0472751     0.6851775     0.6840920    -0.84760
Hw         H          0.0763448     0.6821357     0.6860597     0.42380
Hw         H          0.0402279     0.7092589     0.6886834     0.42380
Ow         O          0.0631313     0.9412002     0.8550658    -0.84760
Hw         H          0.0601950     0.9373979     0.8767108     0.42380
Hw         H          0.0378788     0.9503258     0.8471949     0.42380
Ow         O          0.4248884     0.7695890     0.6307447    -0.84760
Hw         H          0.4492600     0.7622378     0.6202501     0.42380
Hw         H          0.4105004     0.7865726     0.6185010     0.42380
Ow         O          0.1864576     0.5292825     0.7050811    -0.84760
Hw         H          0.1849894     0.5280151     0.7269448     0.42380
Hw         H          0.1870449     0.5536174     0.6987407     0.42380
Ow         O          0.1280244     0.9361305     0.6980847    -0.84760
Hw         H          0.1427061     0.9143305     0.6993966     0.42380
Hw         H          0.1471106     0.9556490     0.6974288     0.42380
Ow         O          0.5520319     0.7498169     0.7024575    -0.84760
Hw         H          0.5338266     0.7460146     0.6858411     0.42380
Hw         H          0.5367630     0.7526053     0.7210416     0.42380
Ow         O          0.3852478     0.8725050     0.8408544    -0.84760
Hw         H          0.3870096     0.8529865     0.8548472     0.42380
Hw         H          0.3699789     0.8659143     0.8233635     0.42380
Ow         O          0.4530773     0.6659125     0.6707552    -0.84760
Hw         H          0.4516091     0.6494357     0.6871529     0.42380
Hw         H          0.4765680     0.6808682     0.6735974     0.42380
Ow         O          0.0980738     0.9320746     0.7829157    -0.84760
Hw         H          0.1148109     0.9155979     0.7938476     0.42380
Hw         H          0.0933756     0.9237096     0.7625825     0.42380
Ow         O          0.2857059     0.8633795     0.7728585    -0.84760
Hw         H          0.2789523     0.8570423     0.7523066     0.42380
Hw         H          0.3036176     0.8458888     0.7813853     0.42380
Ow         O          0.4216584     0.6291567     0.8248940    -0.84760
Hw         H          0.4298802     0.6182567     0.8434781     0.42380
Hw         H          0.4289993     0.6534916     0.8251126     0.42380
Ow         O          0.2607470     0.8349888     0.7136079    -0.84760
Hw         H          0.2871741     0.8385376     0.7044252     0.42380
Hw         H          0.2398990     0.8354958     0.6980847     0.42380
Ow         O          0.2956895     0.6071033     0.7081420    -0.84760
Hw         H          0.2883486     0.6048219     0.6871529     0.42380
Hw         H          0.3097839     0.5863173     0.7149198     0.42380
Ow         O          0.1832276     0.4958221     0.6235297    -0.84760
Hw         H          0.1594433     0.4960756     0.6362106     0.42380
Hw         H          0.1841085     0.5168616     0.6115047     0.42380
Ow         O          0.3409091     0.6527311     0.8316717    -0.84760
Hw         H          0.3174184     0.6372683     0.8323276     0.42380
Hw         H          0.3646934     0.6392962     0.8264244     0.42380
Ow         O          0.1597369     0.7716169     0.6735974    -0.84760
Hw         H          0.1388889     0.7647727     0.6878088     0.42380
Hw         H          0.1521024     0.7645192     0.6532642     0.42380
Ow         O          0.3981677     0.9351165     0.6408020    -0.84760
Hw         H          0.4110876     0.9513397     0.6268092     0.42380
Hw         H          0.3834860     0.9482979     0.6561065     0.42380
Ow         O          0.1896876     0.5358732     0.7623639    -0.84760
Hw         H          0.2008457     0.5145802     0.7704535     0.42380
Hw         H          0.1638478     0.5406895     0.7719839     0.42380
Ow         O          0.2792459     0.5946824     0.6519524    -0.84760
Hw         H          0.2698497     0.6129335     0.6383970     0.42380
Hw         H          0.2862932     0.5741499     0.6403647     0.42380
Ow         O          0.3235847     0.4894849     0.6762211    -0.84760
Hw         H          0.3024430     0.4907524     0.6611352     0.42380
Hw         H          0.3165375     0.4719943     0.6913070     0.42380
Ow         O          0.4554264     0.6291567     0.7284752    -0.84760
Hw         H          0.4466173     0.6050754     0.7300057     0.42380
Hw         H          0.4768616     0.6332125     0.7429052     0.42380
Ow         O          0.4924242     0.8925306     0.8668722    -0.84760
Hw         H          0.5003524     0.9011491     0.8471949     0.42380
Hw         H          0.5156213     0.8828980     0.8769295     0.42380
Ow         O          0.2936340     0.5021593     0.8181162    -0.84760
Hw         H          0.3009749     0.4970896     0.7973458     0.42380
Hw         H          0.3147757     0.5163547     0.8272990     0.42380
Ow         O          0.3127202     0.7624913     0.8874240    -0.84760
Hw         H          0.2836505     0.7640122     0.8896104     0.42380
Hw         H          0.3194738     0.7422123     0.8751804     0.42380
Ow         O          0.1453488     0.6856845     0.7851021    -0.84760
Hw         H          0.1706014     0.6887264     0.7960339     0.42380
Hw         H          0.1330162     0.6636311     0.7910053     0.42380
Ow         O          0.3990486     0.5774452     0.7875071    -0.84760
Hw         H          0.4052149     0.5962033     0.8014998     0.42380
Hw         H          0.3729152     0.5817545     0.7781057     0.42380
Ow         O          0.0437515     0.8760538     0.8025930    -0.84760
Hw         H          0.0302443     0.8968398     0.7951594     0.42380
Hw         H          0.0725276     0.8808701     0.8045608     0.42380
Ow         O          0.1327226     0.7584355     0.6211247    -0.84760
Hw         H          0.1306671     0.7794750     0.6088810     0.42380
Hw         H          0.1338971     0.7381565     0.6080065     0.42380
Ow         O          0.3984614     0.8458888     0.7612707    -0.84760
Hw         H          0.4122622     0.8491841     0.7802921     0.42380
Hw         H          0.3790815     0.8271307     0.7632384     0.42380
Ow         O          0.1289053     0.8623655     0.8021558    -0.84760
Hw         H          0.1227390     0.8512120     0.7831344     0.42380
Hw         H          0.1573878     0.8689562     0.8028117     0.42380
Ow         O          0.1429998     0.6699683     0.8609690    -0.84760
Hw         H          0.1629669     0.6839101     0.8506931     0.42380
Hw         H          0.1547451     0.6476613     0.8668722     0.42380
Ow         O          0.4909561     0.6770659     0.8767108    -0.84760
Hw         H          0.4639417     0.6866985     0.8756176     0.42380
Hw         H          0.5085741     0.6889798     0.8624995     0.42380
Ow         O          0.1729504     0.4922733     0.8920154    -0.84760
Hw         H          0.1606178     0.4778245     0.8767108     0.42380
Hw         H          0.1535706     0.5097640     0.8990118     0.42380
Ow         O          0.1932112     0.7001333     0.7365648    -0.84760
Hw         H          0.2061311     0.7226937     0.7345971     0.42380
Hw         H          0.1747122     0.7001333     0.7533998     0.42380
Ow         O          0.4243012     0.6981054     0.7400630    -0.84760
Hw         H          0.4022786     0.6981054     0.7256330     0.42380
Hw         H          0.4351656     0.6747845     0.7420307     0.42380
Ow         O          0.0358233     0.8116679     0.7918798    -0.84760
Hw         H          0.0513860     0.7992470     0.8067471     0.42380
Hw         H          0.0422833     0.8365097     0.7929730     0.42380
Ow         O          0.2398990     0.6403102     0.7442171    -0.84760
Hw         H          0.2572234     0.6337195     0.7276007     0.42380
Hw         H          0.2316772     0.6646450     0.7418121     0.42380
Ow         O          0.1151045     0.4955687     0.6467051    -0.84760
Hw         H          0.1118746     0.5193965     0.6539202     0.42380
Hw         H          0.1136364     0.4795989     0.6635402     0.42380
Ow         O          0.3253465     0.6737706     0.7227907    -0.84760
Hw         H          0.3297510     0.6790938     0.7437798     0.42380
Hw         H          0.3165375     0.6496892     0.7208229     0.42380
Ow         O          0.0240780     0.8643934     0.8624995    -0.84760
Hw         H          0.0281889     0.8712376     0.8417290     0.42380
Hw         H          0.0484496     0.8699701     0.8740872     0.42380
Ow         O          0.1186281     0.6849240     0.7190739    -0.84760
Hw         H          0.1459361     0.6940496     0.7201670     0.42380
Hw         H          0.1168663     0.6633776     0.7304430     0.42380
Ow         O          0.1245008     0.6086242     0.7315361    -0.84760
Hw         H          0.1092319     0.5875847     0.7278193     0.42380
Hw         H          0.1471106     0.6098917     0.7175434     0.42380
Ow         O          0.3655743     0.5320709     0.8345140    -0.84760
Hw         H          0.3655743     0.5482941     0.8513490     0.42380
Hw         H          0.3737961     0.5442383     0.8163671     0.42380
Ow         O          0.0507987     0.9361305     0.7142639    -0.84760
Hw         H          0.0384661     0.9143305     0.7083607     0.42380
Hw         H          0.0784003     0.9368909     0.7068302     0.42380
Ow         O          0.1729504     0.8770678     0.7105470    -0.84760
Hw         H          0.1923303     0.8958259     0.7125148     0.42380
Hw         H          0.1858703     0.8570423     0.7013643     0.42380
Ow         O          0.3191802     0.6813752     0.7822598    -0.84760
Hw         H          0.3312192     0.6732636     0.8010626     0.42380
Hw         H          0.2909913     0.6745310     0.7816039     0.42380
Ow         O          0.0367043     0.6174963     0.7551489    -0.84760
Hw         H          0.0616631     0.6091312     0.7461848     0.42380
Hw         H          0.0405215     0.6212986     0.7765753     0.42380
Ow         O          0.0804557     0.6114126     0.8880799    -0.84760
Hw         H          0.0977801     0.6012731     0.8727754     0.42380
Hw         H          0.0634249     0.6294102     0.8791158     0.42380
Ow         O          0.4269439     0.7204123     0.8745245    -0.84760
Hw         H          0.4383956     0.7429727     0.8788972     0.42380
Hw         H          0.4298802     0.7153426     0.8533167     0.42380
Ow         O          0.2642706     0.6245939     0.5826446    -0.84760
Hw         H          0.2663261     0.6020335     0.5725873     0.42380
Hw         H          0.2366690     0.6332125     0.5808955     0.42380
Ow         O          0.5115105     0.6327056     0.7752635    -0.84760
Hw         H          0.5003524     0.6152149     0.7888189     0.42380
Hw         H          0.5355884     0.6235800     0.7656434     0.42380
Ow         O          0.2219873     0.5972173     0.7890376    -0.84760
Hw         H          0.2120038     0.5746568     0.7824785     0.42380
Hw         H          0.2296218     0.6109056     0.7715466     0.42380
Ow         O          0.0716467     0.7678146     0.8321090    -0.84760
Hw         H          0.0781066     0.7523518     0.8487253     0.42380
Hw         H          0.0745830     0.7553937     0.8133062     0.42380
Ow         O          0.4204839     0.7480425     0.7813853    -0.84760
Hw         H          0.4275311     0.7320728     0.7652062     0.42380
Hw         H          0.3940568     0.7581820     0.7774498     0.42380
Ow         O          0.5414611     0.9224421     0.7638944    -0.84760
Hw         H          0.5593728     0.9300467     0.7479339     0.42380
Hw         H          0.5303030     0.8998817     0.7590843     0.42380
Ow         O          0.3925887     0.9183863     0.7582098    -0.84760
Hw         H          0.4172539     0.9196537     0.7464034     0.42380
Hw         H          0.3858351     0.8940515     0.7621453     0.42380
Ow         O          0.0493305     0.7984866     0.7350343    -0.84760
Hw         H          0.0478623     0.7982331     0.7568980     0.42380
Hw         H          0.0249589     0.7880936     0.7267261     0.42380
Ow         O          0.2686751     0.8022889     0.8224890    -0.84760
Hw         H          0.2672070     0.8106540     0.8432594     0.42380
Hw         H          0.2434226     0.8071052     0.8124317     0.42380
Ow         O          0.5655391     0.5239593     0.7221348    -0.84760
Hw         H          0.5769908     0.5024128     0.7142639     0.42380
Hw         H          0.5367630     0.5244663     0.7179807     0.42380
Ow         O          0.1341907     0.8060912     0.8373562    -0.84760
Hw         H          0.1303735     0.8296656     0.8299226     0.42380
Hw         H          0.1095255     0.7929098     0.8345140     0.42380
Ow         O          0.4988842     0.8071052     0.7934103    -0.84760
Hw         H          0.5165022     0.8078656     0.8109012     0.42380
Hw         H          0.4768616     0.8233284     0.7962526     0.42380
Ow         O          0.5267794     0.5771917     0.8135249    -0.84760
Hw         H          0.5482147     0.5946824     0.8143994     0.42380
Hw         H          0.5350012     0.5581801     0.8006253     0.42380
Ow         O          0.2222809     0.5310569     0.8371376    -0.84760
Hw         H          0.2487080     0.5270011     0.8283921     0.42380
Hw         H          0.2246300     0.5323244     0.8587826     0.42380
Ow         O          0.4477919     0.6965845     0.8172417    -0.84760
Hw         H          0.4310547     0.7097658     0.8034676     0.42380
Hw         H          0.4759807     0.6996263     0.8119944     0.42380
Ow         O          0.4633545     0.9275119     0.7212602    -0.84760
Hw         H          0.4730444     0.9437351     0.7061743     0.42380
Hw         H          0.4827343     0.9259909     0.7376580     0.42380
Ow         O          0.5165022     0.7034287     0.7857580    -0.84760
Hw         H          0.5085741     0.6808682     0.7776685     0.42380
Hw         H          0.5167959     0.7206658     0.7697975     0.42380
Ow         O          0.1993775     0.6684473     0.6541388    -0.84760
Hw         H          0.2140592     0.6899938     0.6499847     0.42380
Hw         H          0.1735377     0.6689543     0.6436442     0.42380
Ow         O          0.5467465     0.5662917     0.8705890    -0.84760
Hw         H          0.5417548     0.5741499     0.8500372     0.42380
Hw         H          0.5220813     0.5569127     0.8788972     0.42380
Ow         O          0.2190510     0.9333421     0.7199484    -0.84760
Hw         H          0.2055438     0.9556490     0.7171061     0.42380
Hw         H          0.2481207     0.9363839     0.7184179     0.42380
Ow         O          0.2771905     0.7219333     0.6998338    -0.84760
Hw         H          0.2930467     0.7044426     0.7103284     0.42380
Hw         H          0.2677942     0.7394239     0.7142639     0.42380
Ow         O          0.0246653     0.8773213     0.6976475    -0.84760
Hw         H          0.0038172     0.8742794     0.6823429     0.42380
Hw         H          0.0249589     0.8572957     0.7107657     0.42380
Ow         O          0.0481560     0.7939238     0.6543574    -0.84760
Hw         H          0.0478623     0.7820099     0.6735974     0.42380
Hw         H          0.0722340     0.7868261     0.6432070     0.42380
Ow         O          0.5605473     0.5282686     0.7798548    -0.84760
Hw         H          0.5593728     0.5054547     0.7894748     0.42380
Hw         H          0.5614282     0.5254802     0.7582098     0.42380
Ow         O          0.1506342     0.5870777     0.6252788    -0.84760
Hw         H          0.1594433     0.5688266     0.6117233     0.42380
Hw         H          0.1391825     0.5769382     0.6434256     0.42380
Ow         O          0.1180409     0.6182567     0.7914426    -0.84760
Hw         H          0.1291990     0.6033010     0.8071844     0.42380
Hw         H          0.1297862     0.6116661     0.7722025     0.42380
Ow         O          0.2633897     0.8816306     0.6617911    -0.84760
Hw         H          0.2727860     0.8841655     0.6412392     0.42380
Hw         H          0.2401926     0.8659143     0.6622283     0.42380
Ow         O          0.4430937     0.5338453     0.7547116    -0.84760
Hw         H          0.4583627     0.5173686     0.7667366     0.42380
Hw         H          0.4287057     0.5498150     0.7680484     0.42380
Ow         O          0.3188865     0.9602118     0.7638944    -0.84760
Hw         H          0.3003876     0.9419607     0.7571166     0.42380
Hw         H          0.3461945     0.9510862     0.7638944     0.42380
Ow         O          0.4066831     0.5944289     0.6626656    -0.84760
Hw         H          0.3893587     0.6147079     0.6635402     0.42380
Hw         H          0.4110876     0.5855568     0.6829988     0.42380
Ow         O          0.4927179     0.5356197     0.7044252    -0.84760
Hw         H          0.4680526     0.5353662     0.7162316     0.42380
Hw         H          0.4933051     0.5566592     0.6921816     0.42380
Ow         O          0.6377731     0.5493081     0.7293498    -0.84760
Hw         H          0.6480503     0.5449988     0.7494643     0.42380
Hw         H          0.6119333     0.5379011     0.7267261     0.42380
Ow         O          0.7387832     0.8027959     0.7662994    -0.84760
Hw         H          0.7114752     0.8010215     0.7582098     0.42380
Hw         H          0.7420132     0.8253563     0.7759194     0.42380
Ow         O          0.9049800     0.6578008     0.6683502    -0.84760
Hw         H          0.9217172     0.6775729     0.6628843     0.42380
Hw         H          0.8873620     0.6643915     0.6849665     0.42380
Ow         O          0.7728447     0.7361286     0.6569811    -0.84760
Hw         H          0.7931055     0.7320728     0.6722856     0.42380
Hw         H          0.7514094     0.7505774     0.6652893     0.42380
Ow         O          0.6700728     0.8433539     0.7435612    -0.84760
Hw         H          0.6471694     0.8354958     0.7319734     0.42380
Hw         H          0.6871036     0.8580562     0.7310989     0.42380
Ow         O          0.7003171     0.5789661     0.8393240    -0.84760
Hw         H          0.7243951     0.5647708     0.8412917     0.42380
Hw         H          0.6765328     0.5642638     0.8401985     0.42380
Ow         O          0.6392412     0.8431004     0.6292142    -0.84760
Hw         H          0.6316068     0.8674353     0.6292142     0.42380
Hw         H          0.6183932     0.8294121     0.6390529     0.42380
Ow         O          0.6421776     0.7561541     0.7052998    -0.84760
Hw         H          0.6462885     0.7348611     0.7166689     0.42380
Hw         H          0.6260277     0.7723773     0.7173248     0.42380
Ow         O          0.7537585     0.9323281     0.8262058    -0.84760
Hw         H          0.7267442     0.9280188     0.8338581     0.42380
Hw         H          0.7619803     0.9556490     0.8318903     0.42380
Ow         O          0.6075288     0.6425916     0.6346801    -0.84760
Hw         H          0.5943152     0.6202847     0.6383970     0.42380
Hw         H          0.6072351     0.6562799     0.6530456     0.42380
Ow         O          0.6048861     0.6664194     0.8607504    -0.84760
Hw         H          0.6307259     0.6631241     0.8705890     0.42380
Hw         H          0.6010688     0.6910077     0.8559404     0.42380
Ow         O          0.7517031     0.8256098     0.6703179    -0.84760
Hw         H          0.7373150     0.8035563     0.6722856     0.42380
Hw         H          0.7449495     0.8365097     0.6512965     0.42380
Ow         O          0.9513742     0.7908819     0.8227076    -0.84760
Hw         H          0.9622387     0.7723773     0.8100267     0.42380
Hw         H          0.9666432     0.7921494     0.8412917     0.42380
Ow         O          0.6295513     0.7270030     0.7879444    -0.84760
Hw         H          0.6556848     0.7155961     0.7848835     0.42380
Hw         H          0.6081160     0.7105263     0.7837903     0.42380
Ow         O          0.9202490     0.9338491     0.8649045    -0.84760
Hw         H          0.9272962     0.9490583     0.8482881     0.42380
Hw         H          0.9223044     0.9097677     0.8583454     0.42380
Ow         O          0.8086681     0.6329590     0.8318903    -0.84760
Hw         H          0.7948673     0.6321986     0.8513490     0.42380
Hw         H          0.7936927     0.6190172     0.8174603     0.42380
Ow         O          0.8574113     0.7052031     0.8552844    -0.84760
Hw         H          0.8709185     0.6839101     0.8489440     0.42380
Hw         H          0.8409678     0.7138217     0.8388867     0.42380
Ow         O          0.8626967     0.5835289     0.7831344    -0.84760
Hw         H          0.8400869     0.5921475     0.7949407     0.42380
Hw         H          0.8527132     0.5706010     0.7658621     0.42380
Ow         O          0.5940216     0.6851775     0.6840920    -0.84760
Hw         H          0.6230914     0.6821357     0.6860597     0.42380
Hw         H          0.5869744     0.7092589     0.6886834     0.42380
Ow         O          0.6098778     0.9412002     0.8550658    -0.84760
Hw         H          0.6069415     0.9373979     0.8767108     0.42380
Hw         H          0.5846253     0.9503258     0.8471949     0.42380
Ow         O          0.7332041     0.5292825     0.7050811    -0.84760
Hw         H          0.7317360     0.5280151     0.7269448     0.42380
Hw         H          0.7337914     0.5536174     0.6987407     0.42380
Ow         O          0.6747710     0.9361305     0.6980847    -0.84760
Hw         H          0.6894527     0.9143305     0.6993966     0.42380
Hw         H          0.6938572     0.9556490     0.6974288     0.42380
Ow         O          0.9319944     0.8725050     0.8408544    -0.84760
Hw         H          0.9337562     0.8529865     0.8548472     0.42380
Hw         H          0.9167254     0.8659143     0.8233635     0.42380
Ow         O          0.6448203     0.9320746     0.7829157    -0.84760
Hw         H          0.6615574     0.9155979     0.7938476     0.42380
Hw         H          0.6401222     0.9237096     0.7625825     0.42380
Ow         O          0.8324524     0.8633795     0.7728585    -0.84760
Hw         H          0.8256988     0.8570423     0.7523066     0.42380
Hw         H          0.8503641     0.8458888     0.7813853     0.42380
Ow         O          0.8074935     0.8349888     0.7136079    -0.84760
Hw         H          0.8339206     0.8385376     0.7044252     0.42380
Hw         H          0.7866455     0.8354958     0.6980847     0.42380
Ow         O          0.8424360     0.6071033     0.7081420    -0.84760
Hw         H          0.8350951     0.6048219     0.6871529     0.42380
Hw         H          0.8565304     0.5863173     0.7149198     0.42380
Ow         O          0.9319944     0.8775748     0.6849665    -0.84760
Hw         H          0.9381607     0.8963329     0.6707552     0.42380
Hw         H          0.9519615     0.8775748     0.7009270     0.42380
Ow         O          0.7064834     0.7716169     0.6735974    -0.84760
Hw         H          0.6856354     0.7647727     0.6878088     0.42380
Hw         H          0.6988490     0.7645192     0.6532642     0.42380
Ow         O          0.9449143     0.9351165     0.6408020    -0.84760
Hw         H          0.9578342     0.9513397     0.6268092     0.42380
Hw         H          0.9302326     0.9482979     0.6561065     0.42380
Ow         O          0.5946089     0.6205381     0.8146180    -0.84760
Hw         H          0.6216232     0.6202847     0.8056539     0.42380
Hw         H          0.5928471     0.6392962     0.8292667     0.42380
Ow         O          0.7364341     0.5358732     0.7623639    -0.84760
Hw         H          0.7475922     0.5145802     0.7704535     0.42380
Hw         H          0.7105943     0.5406895     0.7719839     0.42380
Ow         O          0.8259925     0.5946824     0.6519524    -0.84760
Hw         H          0.8165962     0.6129335     0.6383970     0.42380
Hw         H          0.8330397     0.5741499     0.6403647     0.42380
Ow         O          0.8703312     0.4894849     0.6762211    -0.84760
Hw         H          0.8491896     0.4907524     0.6611352     0.42380
Hw         H          0.8632840     0.4719943     0.6913070     0.42380
Ow         O          0.8841320     0.8210470     0.8045608    -0.84760
Hw         H          0.8606413     0.8152168     0.8165858     0.42380
Hw         H          0.9085036     0.8144563     0.8152740     0.42380
Ow         O          0.8979328     0.7825168     0.7520880    -0.84760
Hw         H          0.8861875     0.7936703     0.7697975     0.42380
Hw         H          0.8858938     0.7918959     0.7339411     0.42380
Ow         O          0.8403805     0.5021593     0.8181162    -0.84760
Hw         H          0.8477214     0.4970896     0.7973458     0.42380
Hw         H          0.8615222     0.5163547     0.8272990     0.42380
Ow         O          0.6920954     0.6856845     0.7851021    -0.84760
Hw         H          0.7173479     0.6887264     0.7960339     0.42380
Hw         H          0.6797627     0.6636311     0.7910053     0.42380
Ow         O          0.5904980     0.8760538     0.8025930    -0.84760
Hw         H          0.5769908     0.8968398     0.7951594     0.42380
Hw         H          0.6192741     0.8808701     0.8045608     0.42380
Ow         O          0.6794691     0.7584355     0.6211247    -0.84760
Hw         H          0.6774137     0.7794750     0.6088810     0.42380
Hw         H          0.6806436     0.7381565     0.6080065     0.42380
Ow         O          0.9452079     0.8458888     0.7612707    -0.84760
Hw         H          0.9590087     0.8491841     0.7802921     0.42380
Hw         H          0.9258280     0.8271307     0.7632384     0.42380
Ow         O          0.6756519     0.8623655     0.8021558    -0.84760
Hw         H          0.6694856     0.8512120     0.7831344     0.42380
Hw         H          0.7041344     0.8689562     0.8028117     0.42380
Ow         O          0.6897463     0.6699683     0.8609690    -0.84760
Hw         H          0.7097134     0.6839101     0.8506931     0.42380
Hw         H          0.7014917     0.6476613     0.8668722     0.42380
Ow         O          0.9710477     0.6981054     0.7400630    -0.84760
Hw         H          0.9490251     0.6981054     0.7256330     0.42380
Hw         H          0.9819121     0.6747845     0.7420307     0.42380
Ow         O          0.7866455     0.6403102     0.7442171    -0.84760
Hw         H          0.8039699     0.6337195     0.7276007     0.42380
Hw         H          0.7784238     0.6646450     0.7418121     0.42380
Ow         O          0.6618511     0.4955687     0.6467051    -0.84760
Hw         H          0.6586211     0.5193965     0.6539202     0.42380
Hw         H          0.6603829     0.4795989     0.6635402     0.42380
Ow         O          0.8594668     0.8783352     0.8832699    -0.84760
Hw         H          0.8535941     0.8894887     0.8640299     0.42380
Hw         H          0.8709185     0.8552678     0.8797717     0.42380
Ow         O          0.5708245     0.8643934     0.8624995    -0.84760
Hw         H          0.5749354     0.8712376     0.8417290     0.42380
Hw         H          0.5951961     0.8699701     0.8740872     0.42380
Ow         O          0.8853066     0.8174982     0.6972102    -0.84760
Hw         H          0.8873620     0.7962052     0.6851852     0.42380
Hw         H          0.9035119     0.8349888     0.6893393     0.42380
Ow         O          0.6653747     0.6849240     0.7190739    -0.84760
Hw         H          0.6926826     0.6940496     0.7201670     0.42380
Hw         H          0.6636129     0.6633776     0.7304430     0.42380
Ow         O          0.9058609     0.5759243     0.8784599    -0.84760
Hw         H          0.8926474     0.5918940     0.8924527     0.42380
Hw         H          0.9331689     0.5837824     0.8747431     0.42380
Ow         O          0.9123209     0.5320709     0.8345140    -0.84760
Hw         H          0.9123209     0.5482941     0.8513490     0.42380
Hw         H          0.9205426     0.5442383     0.8163671     0.42380
Ow         O          0.5975452     0.9361305     0.7142639    -0.84760
Hw         H          0.5852126     0.9143305     0.7083607     0.42380
Hw         H          0.6251468     0.9368909     0.7068302     0.42380
Ow         O          0.7196970     0.8770678     0.7105470    -0.84760
Hw         H          0.7390768     0.8958259     0.7125148     0.42380
Hw         H          0.7326169     0.8570423     0.7013643     0.42380
Ow         O          0.5834508     0.6174963     0.7551489    -0.84760
Hw         H          0.6084097     0.6091312     0.7461848     0.42380
Hw         H          0.5872680     0.6212986     0.7765753     0.42380
Ow         O          0.9736904     0.7204123     0.8745245    -0.84760
Hw         H          0.9851421     0.7429727     0.8788972     0.42380
Hw         H          0.9766267     0.7153426     0.8533167     0.42380
Ow         O          0.7687339     0.5972173     0.7890376    -0.84760
Hw         H          0.7587503     0.5746568     0.7824785     0.42380
Hw         H          0.7763683     0.6109056     0.7715466     0.42380
Ow         O          0.6183932     0.7678146     0.8321090    -0.84760
Hw         H          0.6248532     0.7523518     0.8487253     0.42380
Hw         H          0.6213296     0.7553937     0.8133062     0.42380
Ow         O          0.9672304     0.7480425     0.7813853    -0.84760
Hw         H          0.9742777     0.7320728     0.7652062     0.42380
Hw         H          0.9408034     0.7581820     0.7774498     0.42380
Ow         O          0.9393352     0.9183863     0.7582098    -0.84760
Hw         H          0.9640005     0.9196537     0.7464034     0.42380
Hw         H          0.9325816     0.8940515     0.7621453     0.42380
Ow         O          0.5960770     0.7984866     0.7350343    -0.84760
Hw         H          0.5946089     0.7982331     0.7568980     0.42380
Hw         H          0.5717054     0.7880936     0.7267261     0.42380
Ow         O          0.9475570     0.7145821     0.6585115    -0.84760
Hw         H          0.9651750     0.6940496     0.6589488     0.42380
Hw         H          0.9593023     0.7320728     0.6453933     0.42380
Ow         O          0.8154217     0.8022889     0.8224890    -0.84760
Hw         H          0.8139535     0.8106540     0.8432594     0.42380
Hw         H          0.7901691     0.8071052     0.8124317     0.42380
Ow         O          0.8130726     0.7335937     0.8115571    -0.84760
Hw         H          0.8248179     0.7333402     0.7914426     0.42380
Hw         H          0.8160089     0.7569146     0.8203026     0.42380
Ow         O          0.6809373     0.8060912     0.8373562    -0.84760
Hw         H          0.6771200     0.8296656     0.8299226     0.42380
Hw         H          0.6562720     0.7929098     0.8345140     0.42380
Ow         O          0.8767912     0.7579285     0.6637588    -0.84760
Hw         H          0.8562368     0.7460146     0.6755652     0.42380
Hw         H          0.8941156     0.7406914     0.6543574     0.42380
Ow         O          0.8694503     0.5394220     0.7238839    -0.84760
Hw         H          0.8671012     0.5302965     0.7035507     0.42380
Hw         H          0.8688630     0.5201570     0.7380952     0.42380
Ow         O          0.7690275     0.5310569     0.8371376    -0.84760
Hw         H          0.7954545     0.5270011     0.8283921     0.42380
Hw         H          0.7713766     0.5323244     0.8587826     0.42380
Ow         O          0.7517031     0.6930357     0.8244567    -0.84760
Hw         H          0.7681466     0.7135682     0.8207399     0.42380
Hw         H          0.7690275     0.6727566     0.8251126     0.42380
Ow         O          0.6862227     0.9209212     0.8526608    -0.84760
Hw         H          0.6595020     0.9313142     0.8522235     0.42380
Hw         H          0.6841673     0.8970933     0.8596572     0.42380
Ow         O          0.7657975     0.9333421     0.7199484    -0.84760
Hw         H          0.7522903     0.9556490     0.7171061     0.42380
Hw         H          0.7948673     0.9363839     0.7184179     0.42380
Ow         O          0.8239370     0.7219333     0.6998338    -0.84760
Hw         H          0.8397933     0.7044426     0.7103284     0.42380
Hw         H          0.8145408     0.7394239     0.7142639     0.42380
Ow         O          0.5949025     0.7939238     0.6543574    -0.84760
Hw         H          0.5946089     0.7820099     0.6735974     0.42380
Hw         H          0.6189805     0.7868261     0.6432070     0.42380
Ow         O          0.7690275     0.8322005     0.8666535    -0.84760
Hw         H          0.7461240     0.8195261     0.8749617     0.42380
Hw         H          0.7681466     0.8562818     0.8734313     0.42380
Ow         O          0.6647874     0.6182567     0.7914426    -0.84760
Hw         H          0.6759455     0.6033010     0.8071844     0.42380
Hw         H          0.6765328     0.6116661     0.7722025     0.42380
Ow         O          0.8101362     0.8816306     0.6617911    -0.84760
Hw         H          0.8195325     0.8841655     0.6412392     0.42380
Hw         H          0.7869392     0.8659143     0.6622283     0.42380
Ow         O          0.8656331     0.9602118     0.7638944    -0.84760
Hw         H          0.8471341     0.9419607     0.7571166     0.42380
Hw         H          0.8929410     0.9510862     0.7638944     0.42380
Ow         O          0.7531712     0.8768143     0.7923171    -0.84760
Hw         H          0.7517031     0.8976003     0.8047794     0.42380
Hw         H          0.7793047     0.8760538     0.7824785     0.42380
Ow         O          0.9534296     0.5944289     0.6626656    -0.84760
Hw         H          0.9361052     0.6147079     0.6635402     0.42380
Hw         H          0.9578342     0.5855568     0.6829988     0.42380
Ow         O          0.3235847     0.9615097     0.6762211    -0.84760
Hw         H          0.3024430     0.9627771     0.6611352     0.42380
Hw         H          0.3165375     0.9440190     0.6913070     0.42380
Ow         O          0.2936340     0.9741840     0.8181162    -0.84760
Hw         H          0.3009749     0.9691143     0.7973458     0.42380
Hw         H          0.3147757     0.9883794     0.8272990     0.42380
Ow         O          0.5317712     0.9858445     0.6259347    -0.84760
Hw         H          0.5532065     0.9815352     0.6112860     0.42380
Hw         H          0.5226685     0.9637910     0.6342429     0.42380
Ow         O          0.8703312     0.9615097     0.6762211    -0.84760
Hw         H          0.8491896     0.9627771     0.6611352     0.42380
Hw         H          0.8632840     0.9440190     0.6913070     0.42380


